
  Mrv1722703221715202D          

 21 24  0  0  0  0            999 V2000
    0.0000    0.0000    0.0000 O   0  0  0  0  0  0  0  0  0  0  0  0
   -0.2553   -0.7857    0.0000 C   0  0  0  0  0  0  0  0  0  0  0  0
    0.3012   -1.3947    0.0000 C   0  0  1  0  0  0  0  0  0  0  0  0
    0.1244   -2.2001    0.0000 C   0  0  0  0  0  0  0  0  0  0  0  0
    1.1197   -1.2965    0.0000 C   0  0  0  0  0  0  0  0  0  0  0  0
    0.8381   -2.6061    0.0000 C   0  0  0  0  0  0  0  0  0  0  0  0
    1.4536   -2.0495    0.0000 C   0  0  1  0  0  0  0  0  0  0  0  0
    2.2591   -2.2132    0.0000 N   0  0  0  0  0  0  0  0  0  0  0  0
    2.8680   -1.6436    0.0000 C   0  0  0  0  0  0  0  0  0  0  0  0
    2.5930   -2.9662    0.0000 C   0  0  0  0  0  0  0  0  0  0  0  0
    2.8549   -0.8054    0.0000 N   0  0  0  0  0  0  0  0  0  0  0  0
    3.5817   -2.0495    0.0000 C   0  0  0  0  0  0  0  0  0  0  0  0
    3.4115   -2.8680    0.0000 N   0  0  0  0  0  0  0  0  0  0  0  0
    3.5686   -0.3798    0.0000 C   0  0  0  0  0  0  0  0  0  0  0  0
    4.2955   -1.6239    0.0000 C   0  0  0  0  0  0  0  0  0  0  0  0
    4.2824   -0.7857    0.0000 N   0  0  0  0  0  0  0  0  0  0  0  0
    3.5555    0.4584    0.0000 N   0  0  0  0  0  0  0  0  0  0  0  0
    5.0092   -2.0299    0.0000 N   0  0  0  0  0  0  0  0  0  0  0  0
    5.7229   -1.6043    0.0000 C   0  0  0  0  0  0  0  0  0  0  0  0
    6.1289   -0.8774    0.0000 C   0  0  0  0  0  0  0  0  0  0  0  0
    6.5480   -1.5912    0.0000 C   0  0  0  0  0  0  0  0  0  0  0  0
  1  2  1  0  0  0  0
  3  2  1  6  0  0  0
  3  4  1  0  0  0  0
  3  5  1  0  0  0  0
  4  6  2  0  0  0  0
  5  7  1  0  0  0  0
  7  8  1  6  0  0  0
  8  9  1  0  0  0  0
  8 10  1  0  0  0  0
  9 11  2  0  0  0  0
  9 12  1  0  0  0  0
 10 13  2  0  0  0  0
 11 14  1  0  0  0  0
 12 15  2  0  0  0  0
 14 16  2  0  0  0  0
 14 17  1  0  0  0  0
 15 18  1  0  0  0  0
 18 19  1  0  0  0  0
 19 20  1  0  0  0  0
 19 21  1  0  0  0  0
  6  7  1  0  0  0  0
 12 13  1  0  0  0  0
 15 16  1  0  0  0  0
 20 21  1  0  0  0  0
M  END

>  <name>
Abacavir

>  <ROTATABLE_BONDCOUNT>
4

>  <HBDScore>
0.16666666666666674

>  <dipole>
1.67

>  <logD>
0.39

>  <MPOScore>
4.770666666666667

>  <logDScore>
1.0

>  <MW>
286.339

>  <charge_dist(7.4)>
0.00

>  <CNS>
FALSE

>  <ArRings>
2

>  <HBD>
3

>  <BALABAN_INDEX>
1.19

>  <bpKa>
3.3

>  <TPSAScore>
0.6040000000000001

>  <MWScore>
1.0

>  <bpKaScore>
1.0

>  <logPScore>
1.0

>  <MPO_area>
64.52

>  <TPSA>
101.88

>  <logP>
0.39

$$$$

  Mrv1722703221715202D          

 22 23  0  0  0  0            999 V2000
    0.0000    0.0000    0.0000 S   0  0  0  0  0  0  0  0  0  0  0  0
    0.2804    0.7711    0.0000 O   0  0  0  0  0  0  0  0  0  0  0  0
   -0.2932   -0.7584    0.0000 O   0  0  0  0  0  0  0  0  0  0  0  0
    0.7584   -0.2804    0.0000 N   0  0  0  0  0  0  0  0  0  0  0  0
   -0.7711    0.2932    0.0000 C   0  0  0  0  0  0  0  0  0  0  0  0
    1.3894    0.2486    0.0000 C   0  0  0  0  0  0  0  0  0  0  0  0
   -0.9114    1.1089    0.0000 C   0  0  0  0  0  0  0  0  0  0  0  0
   -1.4085   -0.2231    0.0000 C   0  0  0  0  0  0  0  0  0  0  0  0
    1.2491    1.0643    0.0000 O   0  0  0  0  0  0  0  0  0  0  0  0
    2.1478   -0.0319    0.0000 N   0  0  0  0  0  0  0  0  0  0  0  0
   -1.6825    1.4021    0.0000 C   0  0  0  0  0  0  0  0  0  0  0  0
   -2.1796    0.0701    0.0000 C   0  0  0  0  0  0  0  0  0  0  0  0
    2.7723    0.4971    0.0000 C   0  0  0  0  0  0  0  0  0  0  0  0
   -2.3262    0.8859    0.0000 C   0  0  0  0  0  0  0  0  0  0  0  0
    3.5307    0.2167    0.0000 C   0  0  0  0  0  0  0  0  0  0  0  0
    2.6321    1.3129    0.0000 C   0  0  0  0  0  0  0  0  0  0  0  0
   -3.0974    1.1791    0.0000 C   0  0  0  0  0  0  0  0  0  0  0  0
    4.1553    0.7456    0.0000 C   0  0  0  0  0  0  0  0  0  0  0  0
    3.2567    1.8418    0.0000 C   0  0  0  0  0  0  0  0  0  0  0  0
   -3.7411    0.6628    0.0000 O   0  0  0  0  0  0  0  0  0  0  0  0
   -3.2376    1.9948    0.0000 C   0  0  0  0  0  0  0  0  0  0  0  0
    4.0151    1.5614    0.0000 C   0  0  0  0  0  0  0  0  0  0  0  0
  1  2  2  0  0  0  0
  1  3  2  0  0  0  0
  1  4  1  0  0  0  0
  1  5  1  0  0  0  0
  4  6  1  0  0  0  0
  5  7  2  0  0  0  0
  5  8  1  0  0  0  0
  6  9  2  0  0  0  0
  6 10  1  0  0  0  0
  7 11  1  0  0  0  0
  8 12  2  0  0  0  0
 10 13  1  0  0  0  0
 11 14  2  0  0  0  0
 13 15  1  0  0  0  0
 13 16  1  0  0  0  0
 14 17  1  0  0  0  0
 15 18  1  0  0  0  0
 16 19  1  0  0  0  0
 17 20  2  0  0  0  0
 17 21  1  0  0  0  0
 18 22  1  0  0  0  0
 12 14  1  0  0  0  0
 19 22  1  0  0  0  0
M  END

>  <name>
Acetohexamide

>  <ROTATABLE_BONDCOUNT>
3

>  <HBDScore>
0.5

>  <dipole>
8.85

>  <logD>
0.87

>  <MPOScore>
5.422

>  <logDScore>
1.0

>  <MW>
324.40

>  <charge_dist(7.4)>
-1.00

>  <CNS>
FALSE

>  <ArRings>
1

>  <HBD>
2

>  <BALABAN_INDEX>
1.62

>  <bpKa>
-7.42

>  <TPSAScore>
0.9219999999999999

>  <MWScore>
1.0

>  <bpKaScore>
1.0

>  <logPScore>
1.0

>  <MPO_area>
81.38

>  <TPSA>
92.34

>  <logP>
1.81

$$$$

  Mrv1722703221715202D          

 57 64  0  0  0  0            999 V2000
    0.0000    0.0000    0.0000 O   0  0  0  0  0  0  0  0  0  0  0  0
    0.8033    0.2025    0.0000 C   0  0  0  0  0  0  0  0  0  0  0  0
    1.4303   -0.3331    0.0000 O   0  0  0  0  0  0  0  0  0  0  0  0
    1.1168    0.9796    0.0000 C   0  0  0  0  0  0  0  0  0  0  0  0
    2.1356    0.1045    0.0000 C   0  0  0  0  0  0  0  0  0  0  0  0
    1.9396    0.9209    0.0000 C   0  0  0  0  0  0  0  0  0  0  0  0
    2.4752    1.5608    0.0000 C   0  0  2  0  0  0  0  0  0  0  0  0
    3.2981    1.5021    0.0000 C   0  0  2  0  0  0  0  0  0  0  0  0
    2.2727    2.3772    0.0000 C   0  0  0  0  0  0  0  0  0  0  0  0
    3.6115    2.2793    0.0000 C   0  0  1  0  0  0  0  0  0  0  0  0
    3.7944    0.8490    0.0000 C   0  0  0  0  0  0  0  0  0  0  0  0
    2.8931    0.7772    0.0000 C   0  0  0  0  0  0  0  0  0  0  0  0
    2.9780    2.8148    0.0000 C   0  0  0  0  0  0  0  0  0  0  0  0
    3.8401    3.0825    0.0000 O   0  0  0  0  0  0  0  0  0  0  0  0
    4.4279    2.3968    0.0000 C   0  0  1  0  0  0  0  0  0  0  0  0
    4.6108    0.9666    0.0000 C   0  0  0  0  0  0  0  0  0  0  0  0
    4.9242    1.7437    0.0000 C   0  0  2  0  0  0  0  0  0  0  0  0
    4.7414    3.1740    0.0000 C   0  0  0  0  0  0  0  0  0  0  0  0
    5.7406    1.8613    0.0000 C   0  0  2  0  0  0  0  0  0  0  0  0
    5.5577    3.2915    0.0000 C   0  0  0  0  0  0  0  0  0  0  0  0
    6.0541    2.6384    0.0000 C   0  0  2  0  0  0  0  0  0  0  0  0
    6.2369    1.2082    0.0000 C   0  0  0  0  0  0  0  0  0  0  0  0
    5.4140    1.0972    0.0000 C   0  0  0  0  0  0  0  0  0  0  0  0
    6.8704    2.7560    0.0000 C   0  0  0  0  0  0  0  0  0  0  0  0
    7.0533    1.3258    0.0000 C   0  0  0  0  0  0  0  0  0  0  0  0
    7.3668    2.1029    0.0000 C   0  0  2  0  0  0  0  0  0  0  0  0
    8.1831    2.2205    0.0000 O   0  0  0  0  0  0  0  0  0  0  0  0
    8.6794    1.5674    0.0000 C   0  0  2  0  0  0  0  0  0  0  0  0
    8.3529    0.8033    0.0000 O   0  0  0  0  0  0  0  0  0  0  0  0
    9.4958    1.6849    0.0000 C   0  0  0  0  0  0  0  0  0  0  0  0
    8.8493    0.1502    0.0000 C   0  0  1  0  0  0  0  0  0  0  0  0
    9.9922    1.0319    0.0000 C   0  0  1  0  0  0  0  0  0  0  0  0
    9.6656    0.2677    0.0000 C   0  0  2  0  0  0  0  0  0  0  0  0
    8.5227   -0.6139    0.0000 C   0  0  0  0  0  0  0  0  0  0  0  0
   10.8085    1.1494    0.0000 O   0  0  0  0  0  0  0  0  0  0  0  0
   10.1619   -0.3853    0.0000 O   0  0  0  0  0  0  0  0  0  0  0  0
   10.9783   -0.2677    0.0000 C   0  0  2  0  0  0  0  0  0  0  0  0
   11.4747   -0.9209    0.0000 O   0  0  0  0  0  0  0  0  0  0  0  0
   11.2918    0.5094    0.0000 C   0  0  0  0  0  0  0  0  0  0  0  0
   12.2910   -0.8033    0.0000 C   0  0  1  0  0  0  0  0  0  0  0  0
   12.1081    0.6270    0.0000 C   0  0  1  0  0  0  0  0  0  0  0  0
   12.6044   -0.0261    0.0000 C   0  0  2  0  0  0  0  0  0  0  0  0
   12.7873   -1.4563    0.0000 C   0  0  0  0  0  0  0  0  0  0  0  0
   12.4216    1.4041    0.0000 O   0  0  0  0  0  0  0  0  0  0  0  0
   13.4208    0.0914    0.0000 O   0  0  0  0  0  0  0  0  0  0  0  0
   13.7343    0.8686    0.0000 C   0  0  2  0  0  0  0  0  0  0  0  0
   14.5507    0.9862    0.0000 O   0  0  0  0  0  0  0  0  0  0  0  0
   13.2249    1.5347    0.0000 C   0  0  0  0  0  0  0  0  0  0  0  0
   14.8641    1.7633    0.0000 C   0  0  1  0  0  0  0  0  0  0  0  0
   13.5384    2.3119    0.0000 C   0  0  1  0  0  0  0  0  0  0  0  0
   14.3547    2.4295    0.0000 C   0  0  2  0  0  0  0  0  0  0  0  0
   15.6805    1.8809    0.0000 C   0  0  0  0  0  0  0  0  0  0  0  0
   13.0290    2.9780    0.0000 O   0  0  0  0  0  0  0  0  0  0  0  0
   14.6682    3.2066    0.0000 O   0  0  0  0  0  0  0  0  0  0  0  0
   13.3424    3.7552    0.0000 C   0  0  0  0  0  0  0  0  0  0  0  0
   14.1588    3.8728    0.0000 O   0  0  0  0  0  0  0  0  0  0  0  0
   12.8330    4.4213    0.0000 C   0  0  0  0  0  0  0  0  0  0  0  0
  1  2  2  0  0  0  0
  2  3  1  0  0  0  0
  2  4  1  0  0  0  0
  3  5  1  0  0  0  0
  4  6  2  0  0  0  0
  7  6  1  1  0  0  0
  7  8  1  0  0  0  0
  7  9  1  0  0  0  0
  8 10  1  0  0  0  0
  8 11  1  0  0  0  0
  8 12  1  1  0  0  0
  9 13  1  0  0  0  0
 10 14  1  1  0  0  0
 10 15  1  0  0  0  0
 11 16  1  0  0  0  0
 15 17  1  0  0  0  0
 15 18  1  6  0  0  0
 17 19  1  0  0  0  0
 18 20  1  0  0  0  0
 19 21  1  0  0  0  0
 19 22  1  0  0  0  0
 19 23  1  1  0  0  0
 21 24  1  6  0  0  0
 22 25  1  0  0  0  0
 24 26  1  0  0  0  0
 26 27  1  1  0  0  0
 28 27  1  1  0  0  0
 28 29  1  0  0  0  0
 28 30  1  0  0  0  0
 29 31  1  0  0  0  0
 30 32  1  0  0  0  0
 31 33  1  0  0  0  0
 31 34  1  1  0  0  0
 32 35  1  6  0  0  0
 33 36  1  6  0  0  0
 37 36  1  1  0  0  0
 37 38  1  0  0  0  0
 37 39  1  0  0  0  0
 38 40  1  0  0  0  0
 39 41  1  0  0  0  0
 40 42  1  0  0  0  0
 40 43  1  1  0  0  0
 41 44  1  6  0  0  0
 42 45  1  6  0  0  0
 46 45  1  1  0  0  0
 46 47  1  0  0  0  0
 46 48  1  0  0  0  0
 47 49  1  0  0  0  0
 48 50  1  0  0  0  0
 49 51  1  0  0  0  0
 49 52  1  1  0  0  0
 50 53  1  6  0  0  0
 51 54  1  6  0  0  0
 53 55  1  0  0  0  0
 55 56  2  0  0  0  0
 55 57  1  0  0  0  0
  5  6  1  0  0  0  0
 10 13  1  0  0  0  0
 17 16  1  1  0  0  0
 20 21  1  0  0  0  0
 25 26  1  0  0  0  0
 32 33  1  0  0  0  0
 41 42  1  0  0  0  0
 50 51  1  0  0  0  0
M  END

>  <name>
Acetyldigitoxin

>  <ROTATABLE_BONDCOUNT>
9

>  <HBDScore>
0.0

>  <dipole>
3.69

>  <logD>
3.62

>  <MPOScore>
1.67

>  <logDScore>
0.18999999999999995

>  <MW>
806.987

>  <charge_dist(7.4)>
-0.62

>  <CNS>
FALSE

>  <ArRings>
0

>  <HBD>
4

>  <BALABAN_INDEX>
0.80

>  <bpKa>
0.24

>  <TPSAScore>
0.0

>  <MWScore>
0.0

>  <bpKaScore>
1.0

>  <logPScore>
0.48

>  <MPO_area>
9.52

>  <TPSA>
188.90

>  <logP>
4.04

$$$$

  Mrv1722703221715202D          

 26 28  0  0  0  0            999 V2000
    0.0000    0.0000    0.0000 O   0  0  0  0  0  0  0  0  0  0  0  0
   -0.6057   -0.5601    0.0000 C   0  0  0  0  0  0  0  0  0  0  0  0
   -0.4168   -1.3612    0.0000 O   0  0  0  0  0  0  0  0  0  0  0  0
   -1.4068   -0.3191    0.0000 C   0  0  0  0  0  0  0  0  0  0  0  0
   -1.6087    0.4950    0.0000 C   0  0  0  0  0  0  0  0  0  0  0  0
   -2.4098    0.7360    0.0000 C   0  0  0  0  0  0  0  0  0  0  0  0
   -3.0155    0.1759    0.0000 N   0  0  0  0  0  0  0  0  0  0  0  0
   -2.6117    1.5501    0.0000 C   0  0  0  0  0  0  0  0  0  0  0  0
   -3.8166    0.4168    0.0000 C   0  0  0  0  0  0  0  0  0  0  0  0
   -3.4128    1.7910    0.0000 C   0  0  0  0  0  0  0  0  0  0  0  0
   -4.4223   -0.1433    0.0000 C   0  0  0  0  0  0  0  0  0  0  0  0
   -4.0185    1.2309    0.0000 C   0  0  0  0  0  0  0  0  0  0  0  0
   -4.2334   -0.9444    0.0000 C   0  0  0  0  0  0  0  0  0  0  0  0
   -5.2234    0.0977    0.0000 C   0  0  0  0  0  0  0  0  0  0  0  0
   -4.8391   -1.5045    0.0000 C   0  0  0  0  0  0  0  0  0  0  0  0
   -3.4453   -1.1723    0.0000 C   0  0  0  0  0  0  0  0  0  0  0  0
   -5.8291   -0.4624    0.0000 C   0  0  0  0  0  0  0  0  0  0  0  0
   -4.6502   -2.3056    0.0000 C   0  0  0  0  0  0  0  0  0  0  0  0
   -3.2565   -1.9734    0.0000 C   0  0  0  0  0  0  0  0  0  0  0  0
   -6.6302   -0.2214    0.0000 N   0  0  0  0  0  0  0  0  0  0  0  0
   -3.8622   -2.5335    0.0000 C   0  0  0  0  0  0  0  0  0  0  0  0
   -7.2945   -0.7164    0.0000 C   0  0  0  0  0  0  0  0  0  0  0  0
   -6.9103    0.5666    0.0000 C   0  0  0  0  0  0  0  0  0  0  0  0
   -3.6733   -3.3346    0.0000 C   0  0  0  0  0  0  0  0  0  0  0  0
   -7.9849   -0.2410    0.0000 C   0  0  0  0  0  0  0  0  0  0  0  0
   -7.7439    0.5536    0.0000 C   0  0  0  0  0  0  0  0  0  0  0  0
  1  2  2  0  0  0  0
  2  3  1  0  0  0  0
  2  4  1  0  0  0  0
  4  5  2  0  0  0  0
  5  6  1  0  0  0  0
  6  7  2  0  0  0  0
  6  8  1  0  0  0  0
  7  9  1  0  0  0  0
  8 10  2  0  0  0  0
  9 11  1  0  0  0  0
  9 12  2  0  0  0  0
 11 13  1  0  0  0  0
 11 14  2  0  0  0  0
 13 15  2  0  0  0  0
 13 16  1  0  0  0  0
 14 17  1  0  0  0  0
 15 18  1  0  0  0  0
 16 19  2  0  0  0  0
 17 20  1  0  0  0  0
 18 21  2  0  0  0  0
 20 22  1  0  0  0  0
 20 23  1  0  0  0  0
 21 24  1  0  0  0  0
 22 25  1  0  0  0  0
 23 26  1  0  0  0  0
 10 12  1  0  0  0  0
 19 21  1  0  0  0  0
 25 26  1  0  0  0  0
M  END

>  <name>
Acrivastine

>  <ROTATABLE_BONDCOUNT>
6

>  <HBDScore>
0.8333333333333334

>  <dipole>
9.51

>  <logD>
1.69

>  <MPOScore>
5.518333333333333

>  <logDScore>
1.0

>  <MW>
348.446

>  <charge_dist(7.4)>
-0.06

>  <CNS>
FALSE

>  <ArRings>
2

>  <HBD>
1

>  <BALABAN_INDEX>
1.57

>  <bpKa>
8.63

>  <TPSAScore>
1.0

>  <MWScore>
1.0

>  <bpKaScore>
0.6849999999999996

>  <logPScore>
1.0

>  <MPO_area>
84.82

>  <TPSA>
53.43

>  <logP>
1.71

$$$$

  Mrv1722703221715202D          

 16 17  0  0  0  0            999 V2000
    0.0000    0.0000    0.0000 O   0  0  0  0  0  0  0  0  0  0  0  0
   -0.5240   -0.6326    0.0000 C   0  0  0  0  0  0  0  0  0  0  0  0
   -0.2364   -1.3930    0.0000 N   0  0  0  0  0  0  0  0  0  0  0  0
   -1.3418   -0.4984    0.0000 C   0  0  0  0  0  0  0  0  0  0  0  0
   -0.7604   -2.0256    0.0000 C   0  0  0  0  0  0  0  0  0  0  0  0
   -1.7955    0.1981    0.0000 N   0  0  0  0  0  0  0  0  0  0  0  0
   -1.8658   -1.1310    0.0000 C   0  0  0  0  0  0  0  0  0  0  0  0
   -1.5783   -1.8914    0.0000 N   0  0  0  0  0  0  0  0  0  0  0  0
   -0.4728   -2.7859    0.0000 N   0  0  0  0  0  0  0  0  0  0  0  0
   -2.5943   -0.0064    0.0000 C   0  0  0  0  0  0  0  0  0  0  0  0
   -2.6390   -0.8307    0.0000 N   0  0  0  0  0  0  0  0  0  0  0  0
   -3.3354   -1.2715    0.0000 C   0  0  0  0  0  0  0  0  0  0  0  0
   -4.0767   -0.8945    0.0000 O   0  0  0  0  0  0  0  0  0  0  0  0
   -4.7731   -1.3355    0.0000 C   0  0  0  0  0  0  0  0  0  0  0  0
   -5.5144   -0.9585    0.0000 C   0  0  0  0  0  0  0  0  0  0  0  0
   -6.2108   -1.3994    0.0000 O   0  0  0  0  0  0  0  0  0  0  0  0
  1  2  2  0  0  0  0
  2  3  1  0  0  0  0
  2  4  1  0  0  0  0
  3  5  2  0  0  0  0
  4  6  1  0  0  0  0
  4  7  2  0  0  0  0
  5  8  1  0  0  0  0
  5  9  1  0  0  0  0
  6 10  2  0  0  0  0
  7 11  1  0  0  0  0
 11 12  1  0  0  0  0
 12 13  1  0  0  0  0
 13 14  1  0  0  0  0
 14 15  1  0  0  0  0
 15 16  1  0  0  0  0
  7  8  1  0  0  0  0
 10 11  1  0  0  0  0
M  END

>  <name>
Acyclovir

>  <ROTATABLE_BONDCOUNT>
4

>  <HBDScore>
0.16666666666666674

>  <dipole>
12.40

>  <logD>
-1.03

>  <MPOScore>
4.341333333333333

>  <logDScore>
1.0

>  <MW>
225.208

>  <charge_dist(7.4)>
-0.00

>  <CNS>
FALSE

>  <ArRings>
2

>  <HBD>
3

>  <BALABAN_INDEX>
1.65

>  <bpKa>
2.63

>  <TPSAScore>
0.17466666666666653

>  <MWScore>
1.0

>  <bpKaScore>
1.0

>  <logPScore>
1.0

>  <MPO_area>
56.17

>  <TPSA>
114.76

>  <logP>
-1.03

$$$$

  Mrv1722703221715202D          

 18 19  0  0  0  0            999 V2000
    0.0000    0.0000    0.0000 P   0  0  0  0  0  0  0  0  0  0  0  0
   -0.7504   -0.3688    0.0000 O   0  0  0  0  0  0  0  0  0  0  0  0
   -0.3817    0.7504    0.0000 O   0  0  0  0  0  0  0  0  0  0  0  0
    0.3688   -0.7375    0.0000 O   0  0  0  0  0  0  0  0  0  0  0  0
    0.7375    0.3817    0.0000 C   0  0  0  0  0  0  0  0  0  0  0  0
    1.4233   -0.0711    0.0000 O   0  0  0  0  0  0  0  0  0  0  0  0
    2.1608    0.3106    0.0000 C   0  0  0  0  0  0  0  0  0  0  0  0
    2.8466   -0.1423    0.0000 C   0  0  0  0  0  0  0  0  0  0  0  0
    3.5841    0.2394    0.0000 N   0  0  0  0  0  0  0  0  0  0  0  0
    4.3152   -0.1359    0.0000 C   0  0  0  0  0  0  0  0  0  0  0  0
    3.7136    1.0675    0.0000 C   0  0  0  0  0  0  0  0  0  0  0  0
    4.5222   -0.9316    0.0000 N   0  0  0  0  0  0  0  0  0  0  0  0
    4.8975    0.4529    0.0000 C   0  0  0  0  0  0  0  0  0  0  0  0
    4.5287    1.1969    0.0000 N   0  0  0  0  0  0  0  0  0  0  0  0
    5.3180   -1.1451    0.0000 C   0  0  0  0  0  0  0  0  0  0  0  0
    5.6932    0.2394    0.0000 C   0  0  0  0  0  0  0  0  0  0  0  0
    5.9003   -0.5564    0.0000 N   0  0  0  0  0  0  0  0  0  0  0  0
    6.2755    0.8281    0.0000 N   0  0  0  0  0  0  0  0  0  0  0  0
  1  2  2  0  0  0  0
  1  3  1  0  0  0  0
  1  4  1  0  0  0  0
  1  5  1  0  0  0  0
  5  6  1  0  0  0  0
  6  7  1  0  0  0  0
  7  8  1  0  0  0  0
  8  9  1  0  0  0  0
  9 10  1  0  0  0  0
  9 11  1  0  0  0  0
 10 12  2  0  0  0  0
 10 13  1  0  0  0  0
 11 14  2  0  0  0  0
 12 15  1  0  0  0  0
 13 16  2  0  0  0  0
 15 17  2  0  0  0  0
 16 18  1  0  0  0  0
 13 14  1  0  0  0  0
 16 17  1  0  0  0  0
M  END

>  <name>
Adefovir

>  <ROTATABLE_BONDCOUNT>
5

>  <HBDScore>
0.16666666666666674

>  <dipole>
3.85

>  <logD>
-3.96

>  <MPOScore>
4.166666666666667

>  <logDScore>
1.0

>  <MW>
273.189

>  <charge_dist(7.4)>
-1.38

>  <CNS>
FALSE

>  <ArRings>
2

>  <HBD>
3

>  <BALABAN_INDEX>
1.62

>  <bpKa>
1.02

>  <TPSAScore>
0.0

>  <MWScore>
1.0

>  <bpKaScore>
1.0

>  <logPScore>
1.0

>  <MPO_area>
52.78

>  <TPSA>
136.38

>  <logP>
-2.15

$$$$

  Mrv1722703221715202D          

 17 17  0  0  0  0            999 V2000
    0.0000    0.0000    0.0000 O   0  0  0  0  0  0  0  0  0  0  0  0
   -0.7353   -0.3741    0.0000 C   0  0  0  0  0  0  0  0  0  0  0  0
   -0.7740   -1.1868    0.0000 C   0  0  0  0  0  0  0  0  0  0  0  0
   -1.4319    0.0709    0.0000 C   0  0  0  0  0  0  0  0  0  0  0  0
   -1.5094   -1.5609    0.0000 C   0  0  0  0  0  0  0  0  0  0  0  0
   -0.0903   -1.6190    0.0000 C   0  0  0  0  0  0  0  0  0  0  0  0
   -2.1673   -0.3032    0.0000 C   0  0  0  0  0  0  0  0  0  0  0  0
   -2.2060   -1.1159    0.0000 C   0  0  0  0  0  0  0  0  0  0  0  0
   -0.1290   -2.4317    0.0000 O   0  0  0  0  0  0  0  0  0  0  0  0
   -2.9413   -1.4900    0.0000 C   0  0  1  0  0  0  0  0  0  0  0  0
   -2.9800   -2.3027    0.0000 O   0  0  0  0  0  0  0  0  0  0  0  0
   -3.6379   -1.0449    0.0000 C   0  0  0  0  0  0  0  0  0  0  0  0
   -4.3732   -1.4190    0.0000 N   0  0  0  0  0  0  0  0  0  0  0  0
   -5.0698   -0.9739    0.0000 C   0  0  0  0  0  0  0  0  0  0  0  0
   -5.5149   -1.6577    0.0000 C   0  0  0  0  0  0  0  0  0  0  0  0
   -4.6376   -0.2773    0.0000 C   0  0  0  0  0  0  0  0  0  0  0  0
   -5.7664   -0.5289    0.0000 C   0  0  0  0  0  0  0  0  0  0  0  0
  1  2  1  0  0  0  0
  2  3  2  0  0  0  0
  2  4  1  0  0  0  0
  3  5  1  0  0  0  0
  3  6  1  0  0  0  0
  4  7  2  0  0  0  0
  5  8  2  0  0  0  0
  6  9  1  0  0  0  0
  8 10  1  0  0  0  0
 10 11  1  1  0  0  0
 10 12  1  0  0  0  0
 12 13  1  0  0  0  0
 13 14  1  0  0  0  0
 14 15  1  0  0  0  0
 14 16  1  0  0  0  0
 14 17  1  0  0  0  0
  7  8  1  0  0  0  0
M  END

>  <name>
Albuterol

>  <ROTATABLE_BONDCOUNT>
5

>  <HBDScore>
0.0

>  <dipole>
3.17

>  <logD>
-1.32

>  <MPOScore>
4.3

>  <logDScore>
1.0

>  <MW>
239.315

>  <charge_dist(7.4)>
0.99

>  <CNS>
FALSE

>  <ArRings>
1

>  <HBD>
4

>  <BALABAN_INDEX>
2.25

>  <bpKa>
9.4

>  <TPSAScore>
1.0

>  <MWScore>
1.0

>  <bpKaScore>
0.2999999999999998

>  <logPScore>
1.0

>  <MPO_area>
55.0

>  <TPSA>
72.72

>  <logP>
0.34

$$$$

  Mrv1722703221715202D          

 14 13  0  0  0  0            999 V2000
    0.0000    0.0000    0.0000 P   0  0  0  0  0  0  0  0  0  0  0  0
   -0.5477    0.6277    0.0000 O   0  0  0  0  0  0  0  0  0  0  0  0
   -0.7384   -0.3692    0.0000 O   0  0  0  0  0  0  0  0  0  0  0  0
    0.6154    0.5477    0.0000 O   0  0  0  0  0  0  0  0  0  0  0  0
    0.5354   -0.6154    0.0000 C   0  0  0  0  0  0  0  0  0  0  0  0
    1.0707   -1.2307    0.0000 P   0  0  0  0  0  0  0  0  0  0  0  0
    1.1508   -0.0677    0.0000 O   0  0  0  0  0  0  0  0  0  0  0  0
   -0.0923   -1.1508    0.0000 C   0  0  0  0  0  0  0  0  0  0  0  0
    1.6061   -1.8461    0.0000 O   0  0  0  0  0  0  0  0  0  0  0  0
    0.4431   -1.7661    0.0000 O   0  0  0  0  0  0  0  0  0  0  0  0
    1.6861   -0.6831    0.0000 O   0  0  0  0  0  0  0  0  0  0  0  0
   -0.8800   -0.8800    0.0000 C   0  0  0  0  0  0  0  0  0  0  0  0
   -1.5076   -1.4154    0.0000 C   0  0  0  0  0  0  0  0  0  0  0  0
   -2.2953   -1.1446    0.0000 N   0  0  0  0  0  0  0  0  0  0  0  0
  1  2  2  0  0  0  0
  1  3  1  0  0  0  0
  1  4  1  0  0  0  0
  1  5  1  0  0  0  0
  5  6  1  0  0  0  0
  5  7  1  0  0  0  0
  5  8  1  0  0  0  0
  6  9  2  0  0  0  0
  6 10  1  0  0  0  0
  6 11  1  0  0  0  0
  8 12  1  0  0  0  0
 12 13  1  0  0  0  0
 13 14  1  0  0  0  0
M  END

>  <name>
Alendronate

>  <ROTATABLE_BONDCOUNT>
5

>  <HBDScore>
0.0

>  <dipole>
1.46

>  <logD>
-6.56

>  <MPOScore>
3.045

>  <logDScore>
1.0

>  <MW>
249.096

>  <charge_dist(7.4)>
-1.92

>  <CNS>
FALSE

>  <ArRings>
0

>  <HBD>
6

>  <BALABAN_INDEX>
4.87

>  <bpKa>
9.91

>  <TPSAScore>
0.0

>  <MWScore>
1.0

>  <bpKaScore>
0.04499999999999993

>  <logPScore>
1.0

>  <MPO_area>
34.08

>  <TPSA>
161.31

>  <logP>
-4.19

$$$$

  Mrv1722703221715202D          

 28 30  0  0  0  0            999 V2000
    0.0000    0.0000    0.0000 O   0  0  0  0  0  0  0  0  0  0  0  0
   -0.2903    0.7869    0.0000 C   0  0  0  0  0  0  0  0  0  0  0  0
    0.2386    1.4254    0.0000 N   0  0  0  0  0  0  0  0  0  0  0  0
   -1.1094    0.9352    0.0000 C   0  0  1  0  0  0  0  0  0  0  0  0
    1.0449    1.2900    0.0000 C   0  0  0  0  0  0  0  0  0  0  0  0
   -1.7092    0.3676    0.0000 O   0  0  0  0  0  0  0  0  0  0  0  0
   -1.4770    1.6834    0.0000 C   0  0  0  0  0  0  0  0  0  0  0  0
    1.5738    1.9285    0.0000 C   0  0  0  0  0  0  0  0  0  0  0  0
   -2.4445    0.7611    0.0000 C   0  0  0  0  0  0  0  0  0  0  0  0
   -2.3026    1.5738    0.0000 C   0  0  0  0  0  0  0  0  0  0  0  0
    2.3800    1.7931    0.0000 C   0  0  0  0  0  0  0  0  0  0  0  0
    2.9089    2.4316    0.0000 N   0  0  0  0  0  0  0  0  0  0  0  0
    3.7151    2.2961    0.0000 C   0  0  0  0  0  0  0  0  0  0  0  0
    2.6186    3.2185    0.0000 C   0  0  0  0  0  0  0  0  0  0  0  0
    4.2440    2.9347    0.0000 N   0  0  0  0  0  0  0  0  0  0  0  0
    3.9925    1.5222    0.0000 N   0  0  0  0  0  0  0  0  0  0  0  0
    5.0503    2.7993    0.0000 C   0  0  0  0  0  0  0  0  0  0  0  0
    4.7987    1.3867    0.0000 C   0  0  0  0  0  0  0  0  0  0  0  0
    5.5792    3.4378    0.0000 N   0  0  0  0  0  0  0  0  0  0  0  0
    5.3276    2.0252    0.0000 C   0  0  0  0  0  0  0  0  0  0  0  0
    5.0761    0.6128    0.0000 C   0  0  0  0  0  0  0  0  0  0  0  0
    6.1339    1.8898    0.0000 C   0  0  0  0  0  0  0  0  0  0  0  0
    5.8823    0.4773    0.0000 C   0  0  0  0  0  0  0  0  0  0  0  0
    6.4112    1.1158    0.0000 C   0  0  0  0  0  0  0  0  0  0  0  0
    6.1596   -0.2967    0.0000 O   0  0  0  0  0  0  0  0  0  0  0  0
    7.2174    0.9804    0.0000 O   0  0  0  0  0  0  0  0  0  0  0  0
    5.6179   -0.9223    0.0000 C   0  0  0  0  0  0  0  0  0  0  0  0
    7.4948    0.2064    0.0000 C   0  0  0  0  0  0  0  0  0  0  0  0
  1  2  2  0  0  0  0
  2  3  1  0  0  0  0
  4  2  1  1  0  0  0
  3  5  1  0  0  0  0
  4  6  1  0  0  0  0
  4  7  1  0  0  0  0
  5  8  1  0  0  0  0
  6  9  1  0  0  0  0
  7 10  1  0  0  0  0
  8 11  1  0  0  0  0
 11 12  1  0  0  0  0
 12 13  1  0  0  0  0
 12 14  1  0  0  0  0
 13 15  2  0  0  0  0
 13 16  1  0  0  0  0
 15 17  1  0  0  0  0
 16 18  2  0  0  0  0
 17 19  1  0  0  0  0
 17 20  2  0  0  0  0
 18 21  1  0  0  0  0
 20 22  1  0  0  0  0
 21 23  2  0  0  0  0
 22 24  2  0  0  0  0
 23 25  1  0  0  0  0
 24 26  1  0  0  0  0
 25 27  1  0  0  0  0
 26 28  1  0  0  0  0
  9 10  1  0  0  0  0
 18 20  1  0  0  0  0
 23 24  1  0  0  0  0
M  END

>  <name>
Alfuzosin

>  <ROTATABLE_BONDCOUNT>
8

>  <HBDScore>
0.5

>  <dipole>
3.30

>  <logD>
0.94

>  <MPOScore>
4.561933333333333

>  <logDScore>
1.0

>  <MW>
389.456

>  <charge_dist(7.4)>
0.38

>  <CNS>
FALSE

>  <ArRings>
2

>  <HBD>
2

>  <BALABAN_INDEX>
1.32

>  <bpKa>
7.3

>  <TPSAScore>
0.2723333333333334

>  <MWScore>
0.7895999999999999

>  <bpKaScore>
1.0

>  <logPScore>
1.0

>  <MPO_area>
59.88

>  <TPSA>
111.83

>  <logP>
1.19

$$$$

  Mrv1722703221715202D          

 39 39  0  0  0  0            999 V2000
    0.0000    0.0000    0.0000 O   0  0  0  0  0  0  0  0  0  0  0  0
   -0.4253   -0.6959    0.0000 C   0  0  0  0  0  0  0  0  0  0  0  0
   -0.0322   -1.4047    0.0000 N   0  0  0  0  0  0  0  0  0  0  0  0
   -1.2501   -0.6766    0.0000 C   0  0  0  0  0  0  0  0  0  0  0  0
   -2.0748   -0.6573    0.0000 C   0  0  0  0  0  0  0  0  0  0  0  0
   -1.2694   -1.4885    0.0000 C   0  0  0  0  0  0  0  0  0  0  0  0
   -1.2436    0.1482    0.0000 C   0  0  0  0  0  0  0  0  0  0  0  0
   -2.5001   -1.3531    0.0000 N   0  0  0  0  0  0  0  0  0  0  0  0
   -3.3249   -1.3338    0.0000 C   0  0  0  0  0  0  0  0  0  0  0  0
   -3.7308   -0.6122    0.0000 O   0  0  0  0  0  0  0  0  0  0  0  0
   -3.7502   -2.0297    0.0000 C   0  0  2  0  0  0  0  0  0  0  0  0
   -3.3571   -2.7385    0.0000 C   0  0  0  0  0  0  0  0  0  0  0  0
   -4.5750   -2.0104    0.0000 C   0  0  0  0  0  0  0  0  0  0  0  0
   -2.5452   -2.7450    0.0000 C   0  0  0  0  0  0  0  0  0  0  0  0
   -3.7824   -3.4344    0.0000 C   0  0  0  0  0  0  0  0  0  0  0  0
   -4.9809   -1.2887    0.0000 C   0  0  2  0  0  0  0  0  0  0  0  0
   -4.5685   -0.5799    0.0000 O   0  0  0  0  0  0  0  0  0  0  0  0
   -5.8057   -1.2694    0.0000 C   0  0  1  0  0  0  0  0  0  0  0  0
   -6.2310   -1.9653    0.0000 N   0  0  0  0  0  0  0  0  0  0  0  0
   -6.2117   -0.5477    0.0000 C   0  0  0  0  0  0  0  0  0  0  0  0
   -7.0364   -0.5284    0.0000 C   0  0  1  0  0  0  0  0  0  0  0  0
   -7.4617   -1.2243    0.0000 C   0  0  0  0  0  0  0  0  0  0  0  0
   -7.4424    0.1933    0.0000 C   0  0  0  0  0  0  0  0  0  0  0  0
   -7.0686   -1.9331    0.0000 C   0  0  0  0  0  0  0  0  0  0  0  0
   -8.2865   -1.2050    0.0000 C   0  0  0  0  0  0  0  0  0  0  0  0
   -8.2671    0.2126    0.0000 C   0  0  0  0  0  0  0  0  0  0  0  0
   -8.6924   -0.4833    0.0000 C   0  0  0  0  0  0  0  0  0  0  0  0
   -8.6731    0.9343    0.0000 C   0  0  0  0  0  0  0  0  0  0  0  0
   -9.5172   -0.4639    0.0000 C   0  0  0  0  0  0  0  0  0  0  0  0
   -9.4979    0.9537    0.0000 C   0  0  0  0  0  0  0  0  0  0  0  0
   -9.9425   -1.1599    0.0000 O   0  0  0  0  0  0  0  0  0  0  0  0
   -9.9231    0.2578    0.0000 C   0  0  0  0  0  0  0  0  0  0  0  0
   -9.5495   -1.8687    0.0000 C   0  0  0  0  0  0  0  0  0  0  0  0
  -10.7480    0.2771    0.0000 O   0  0  0  0  0  0  0  0  0  0  0  0
   -9.9747   -2.5646    0.0000 C   0  0  0  0  0  0  0  0  0  0  0  0
  -11.1539    0.9987    0.0000 C   0  0  0  0  0  0  0  0  0  0  0  0
   -9.5816   -3.2734    0.0000 C   0  0  0  0  0  0  0  0  0  0  0  0
  -10.0069   -3.9692    0.0000 O   0  0  0  0  0  0  0  0  0  0  0  0
   -9.6139   -4.6780    0.0000 C   0  0  0  0  0  0  0  0  0  0  0  0
  1  2  2  0  0  0  0
  2  3  1  0  0  0  0
  2  4  1  0  0  0  0
  4  5  1  0  0  0  0
  4  6  1  0  0  0  0
  4  7  1  0  0  0  0
  5  8  1  0  0  0  0
  8  9  1  0  0  0  0
  9 10  2  0  0  0  0
  9 11  1  0  0  0  0
 11 12  1  0  0  0  0
 11 13  1  6  0  0  0
 12 14  1  0  0  0  0
 12 15  1  0  0  0  0
 13 16  1  0  0  0  0
 16 17  1  1  0  0  0
 16 18  1  0  0  0  0
 18 19  1  1  0  0  0
 18 20  1  0  0  0  0
 21 20  1  1  0  0  0
 21 22  1  0  0  0  0
 21 23  1  0  0  0  0
 22 24  1  0  0  0  0
 22 25  1  0  0  0  0
 23 26  1  0  0  0  0
 26 27  2  0  0  0  0
 26 28  1  0  0  0  0
 27 29  1  0  0  0  0
 28 30  2  0  0  0  0
 29 31  1  0  0  0  0
 29 32  2  0  0  0  0
 31 33  1  0  0  0  0
 32 34  1  0  0  0  0
 33 35  1  0  0  0  0
 34 36  1  0  0  0  0
 35 37  1  0  0  0  0
 37 38  1  0  0  0  0
 38 39  1  0  0  0  0
 30 32  1  0  0  0  0
M  END

>  <name>
Aliskiren

>  <ROTATABLE_BONDCOUNT>
19

>  <HBDScore>
0.0

>  <dipole>
3.24

>  <logD>
1.00

>  <MPOScore>
2.155

>  <logDScore>
1.0

>  <MW>
551.769

>  <charge_dist(7.4)>
0.99

>  <CNS>
FALSE

>  <ArRings>
1

>  <HBD>
4

>  <BALABAN_INDEX>
2.65

>  <bpKa>
9.57

>  <TPSAScore>
0.0

>  <MWScore>
0.0

>  <bpKaScore>
0.21499999999999986

>  <logPScore>
0.94

>  <MPO_area>
19.04

>  <TPSA>
146.13

>  <logP>
3.12

$$$$

  Mrv1722703221715202D          

 10 11  0  0  0  0            999 V2000
    0.0000    0.0000    0.0000 O   0  0  0  0  0  0  0  0  0  0  0  0
   -0.2324    0.7939    0.0000 C   0  0  0  0  0  0  0  0  0  0  0  0
    0.3292    1.3942    0.0000 N   0  0  0  0  0  0  0  0  0  0  0  0
   -1.0328    0.9940    0.0000 C   0  0  0  0  0  0  0  0  0  0  0  0
    0.0968    2.1882    0.0000 C   0  0  0  0  0  0  0  0  0  0  0  0
   -1.2652    1.7880    0.0000 C   0  0  0  0  0  0  0  0  0  0  0  0
   -1.7170    0.5422    0.0000 C   0  0  0  0  0  0  0  0  0  0  0  0
   -0.7035    2.3883    0.0000 N   0  0  0  0  0  0  0  0  0  0  0  0
   -2.0913    1.8203    0.0000 N   0  0  0  0  0  0  0  0  0  0  0  0
   -2.3689    1.0522    0.0000 N   0  0  0  0  0  0  0  0  0  0  0  0
  1  2  1  0  0  0  0
  2  3  2  0  0  0  0
  2  4  1  0  0  0  0
  3  5  1  0  0  0  0
  4  6  2  0  0  0  0
  4  7  1  0  0  0  0
  5  8  2  0  0  0  0
  6  9  1  0  0  0  0
  7 10  2  0  0  0  0
  6  8  1  0  0  0  0
  9 10  1  0  0  0  0
M  END

>  <name>
Allopurinol

>  <ROTATABLE_BONDCOUNT>
0

>  <HBDScore>
0.5

>  <dipole>
1.72

>  <logD>
-0.00

>  <MPOScore>
5.5

>  <logDScore>
1.0

>  <MW>
136.114

>  <charge_dist(7.4)>
-0.08

>  <CNS>
FALSE

>  <ArRings>
2

>  <HBD>
2

>  <BALABAN_INDEX>
1.66

>  <bpKa>
1.25

>  <TPSAScore>
1.0

>  <MWScore>
1.0

>  <bpKaScore>
1.0

>  <logPScore>
1.0

>  <MPO_area>
83.33

>  <TPSA>
74.69

>  <logP>
0.03

$$$$

  Mrv1722703221715202D          

 25 27  0  0  0  0            999 V2000
    0.0000    0.0000    0.0000 O   0  0  0  0  0  0  0  0  0  0  0  0
    0.8083   -0.0962    0.0000 C   0  0  0  0  0  0  0  0  0  0  0  0
    1.3022    0.5645    0.0000 N   0  0  0  0  0  0  0  0  0  0  0  0
    1.1162   -0.8467    0.0000 N   0  0  0  0  0  0  0  0  0  0  0  0
    2.1105    0.4683    0.0000 C   0  0  0  0  0  0  0  0  0  0  0  0
    0.9815    1.3279    0.0000 C   0  0  0  0  0  0  0  0  0  0  0  0
    1.9245   -0.9430    0.0000 C   0  0  0  0  0  0  0  0  0  0  0  0
    0.6094   -1.4947    0.0000 C   0  0  0  0  0  0  0  0  0  0  0  0
    2.6044    1.1290    0.0000 N   0  0  0  0  0  0  0  0  0  0  0  0
    2.4185   -0.2822    0.0000 C   0  0  0  0  0  0  0  0  0  0  0  0
    0.1604    1.4369    0.0000 C   0  0  0  0  0  0  0  0  0  0  0  0
    2.2324   -1.6936    0.0000 O   0  0  0  0  0  0  0  0  0  0  0  0
    2.2837    1.8924    0.0000 C   0  0  0  0  0  0  0  0  0  0  0  0
    3.4128    1.0328    0.0000 C   0  0  0  0  0  0  0  0  0  0  0  0
   -0.1604    2.2003    0.0000 C   0  0  0  0  0  0  0  0  0  0  0  0
   -0.3464    0.7890    0.0000 C   0  0  0  0  0  0  0  0  0  0  0  0
    2.7776    2.5531    0.0000 C   0  0  1  0  0  0  0  0  0  0  0  0
    3.9067    1.6936    0.0000 C   0  0  0  0  0  0  0  0  0  0  0  0
    0.3336    2.8611    0.0000 C   0  0  0  0  0  0  0  0  0  0  0  0
   -0.9815    2.3094    0.0000 C   0  0  0  0  0  0  0  0  0  0  0  0
   -1.1675    0.8981    0.0000 C   0  0  0  0  0  0  0  0  0  0  0  0
    2.4569    3.3165    0.0000 N   0  0  0  0  0  0  0  0  0  0  0  0
    3.5860    2.4569    0.0000 C   0  0  0  0  0  0  0  0  0  0  0  0
    0.8275    3.5218    0.0000 N   0  0  0  0  0  0  0  0  0  0  0  0
   -1.4883    1.6615    0.0000 C   0  0  0  0  0  0  0  0  0  0  0  0
  1  2  2  0  0  0  0
  2  3  1  0  0  0  0
  2  4  1  0  0  0  0
  3  5  1  0  0  0  0
  3  6  1  0  0  0  0
  4  7  1  0  0  0  0
  4  8  1  0  0  0  0
  5  9  1  0  0  0  0
  5 10  2  0  0  0  0
  6 11  1  0  0  0  0
  7 12  2  0  0  0  0
  9 13  1  0  0  0  0
  9 14  1  0  0  0  0
 11 15  2  0  0  0  0
 11 16  1  0  0  0  0
 13 17  1  0  0  0  0
 14 18  1  0  0  0  0
 15 19  1  0  0  0  0
 15 20  1  0  0  0  0
 16 21  2  0  0  0  0
 17 22  1  1  0  0  0
 17 23  1  0  0  0  0
 19 24  3  0  0  0  0
 20 25  2  0  0  0  0
  7 10  1  0  0  0  0
 18 23  1  0  0  0  0
 21 25  1  0  0  0  0
M  END

>  <name>
Alogliptin

>  <ROTATABLE_BONDCOUNT>
3

>  <HBDScore>
0.8333333333333334

>  <dipole>
8.45

>  <logD>
-0.87

>  <MPOScore>
4.975999999999999

>  <logDScore>
1.0

>  <MW>
339.399

>  <charge_dist(7.4)>
0.99

>  <CNS>
FALSE

>  <ArRings>
2

>  <HBD>
1

>  <BALABAN_INDEX>
1.56

>  <bpKa>
9.47

>  <TPSAScore>
0.8776666666666666

>  <MWScore>
1.0

>  <bpKaScore>
0.2649999999999997

>  <logPScore>
1.0

>  <MPO_area>
68.25

>  <TPSA>
93.67

>  <logP>
1.16

$$$$

  Mrv1722703221715202D          

 22 25  0  0  0  0            999 V2000
    0.0000    0.0000    0.0000 O   0  0  0  0  0  0  0  0  0  0  0  0
   -0.0783   -0.8226    0.0000 C   0  0  0  0  0  0  0  0  0  0  0  0
   -0.8356   -1.1620    0.0000 N   0  0  0  0  0  0  0  0  0  0  0  0
    0.5941   -1.2926    0.0000 C   0  0  0  0  0  0  0  0  0  0  0  0
   -0.9140   -1.9845    0.0000 C   0  0  0  0  0  0  0  0  0  0  0  0
   -1.5211   -0.6789    0.0000 C   0  0  0  0  0  0  0  0  0  0  0  0
    1.3970   -1.1033    0.0000 C   0  0  0  0  0  0  0  0  0  0  0  0
    0.5157   -2.1151    0.0000 C   0  0  0  0  0  0  0  0  0  0  0  0
   -0.2416   -2.4546    0.0000 C   0  0  0  0  0  0  0  0  0  0  0  0
   -2.2783   -1.0184    0.0000 C   0  0  0  0  0  0  0  0  0  0  0  0
    1.8149   -1.8083    0.0000 C   0  0  0  0  0  0  0  0  0  0  0  0
    1.7952   -0.3721    0.0000 C   0  0  0  0  0  0  0  0  0  0  0  0
    1.2730   -2.4350    0.0000 N   0  0  0  0  0  0  0  0  0  0  0  0
   -3.0095   -0.6071    0.0000 N   0  0  0  0  0  0  0  0  0  0  0  0
   -2.4480   -1.8279    0.0000 C   0  0  0  0  0  0  0  0  0  0  0  0
    2.6374   -1.7887    0.0000 C   0  0  0  0  0  0  0  0  0  0  0  0
    2.6178   -0.3525    0.0000 C   0  0  0  0  0  0  0  0  0  0  0  0
    1.4492   -3.2380    0.0000 C   0  0  0  0  0  0  0  0  0  0  0  0
   -3.6231   -1.1620    0.0000 C   0  0  0  0  0  0  0  0  0  0  0  0
   -3.2772   -1.9193    0.0000 N   0  0  0  0  0  0  0  0  0  0  0  0
   -1.8932   -2.4285    0.0000 C   0  0  0  0  0  0  0  0  0  0  0  0
    3.0356   -1.0576    0.0000 C   0  0  0  0  0  0  0  0  0  0  0  0
  1  2  2  0  0  0  0
  2  3  1  0  0  0  0
  2  4  1  0  0  0  0
  3  5  1  0  0  0  0
  3  6  1  0  0  0  0
  4  7  1  0  0  0  0
  4  8  2  0  0  0  0
  5  9  1  0  0  0  0
  6 10  1  0  0  0  0
  7 11  2  0  0  0  0
  7 12  1  0  0  0  0
  8 13  1  0  0  0  0
 10 14  1  0  0  0  0
 10 15  2  0  0  0  0
 11 16  1  0  0  0  0
 12 17  2  0  0  0  0
 13 18  1  0  0  0  0
 14 19  1  0  0  0  0
 15 20  1  0  0  0  0
 15 21  1  0  0  0  0
 16 22  2  0  0  0  0
  8  9  1  0  0  0  0
 11 13  1  0  0  0  0
 17 22  1  0  0  0  0
 19 20  2  0  0  0  0
M  END

>  <name>
Alosetron

>  <ROTATABLE_BONDCOUNT>
2

>  <HBDScore>
0.8333333333333334

>  <dipole>
8.53

>  <logD>
0.94

>  <MPOScore>
5.833333333333333

>  <logDScore>
1.0

>  <MW>
294.358

>  <charge_dist(7.4)>
0.11

>  <CNS>
FALSE

>  <ArRings>
3

>  <HBD>
1

>  <BALABAN_INDEX>
1.48

>  <bpKa>
6.48

>  <TPSAScore>
1.0

>  <MWScore>
1.0

>  <bpKaScore>
1.0

>  <logPScore>
1.0

>  <MPO_area>
94.44

>  <TPSA>
53.92

>  <logP>
0.98

$$$$

  Mrv1722703221715202D          

 15 15  0  0  0  0            999 V2000
    0.0000    0.0000    0.0000 N   0  0  0  0  0  0  0  0  0  0  0  0
    0.8224    0.0065    0.0000 C   0  0  0  0  0  0  0  0  0  0  0  0
   -0.4177   -0.7114    0.0000 C   0  0  0  0  0  0  0  0  0  0  0  0
    1.2336   -0.7049    0.0000 N   0  0  0  0  0  0  0  0  0  0  0  0
    1.2336    0.7310    0.0000 N   0  0  0  0  0  0  0  0  0  0  0  0
   -0.0065   -1.4229    0.0000 N   0  0  0  0  0  0  0  0  0  0  0  0
   -1.2532   -0.7049    0.0000 N   0  0  0  0  0  0  0  0  0  0  0  0
    0.8159   -1.4164    0.0000 C   0  0  0  0  0  0  0  0  0  0  0  0
    2.0560    0.7375    0.0000 C   0  0  0  0  0  0  0  0  0  0  0  0
    0.8159    1.4555    0.0000 C   0  0  0  0  0  0  0  0  0  0  0  0
   -1.6709    0.0196    0.0000 C   0  0  0  0  0  0  0  0  0  0  0  0
   -1.6709   -1.4164    0.0000 C   0  0  0  0  0  0  0  0  0  0  0  0
    1.2271   -2.1278    0.0000 N   0  0  0  0  0  0  0  0  0  0  0  0
    0.8093   -2.8393    0.0000 C   0  0  0  0  0  0  0  0  0  0  0  0
    2.0495   -2.1213    0.0000 C   0  0  0  0  0  0  0  0  0  0  0  0
  1  2  2  0  0  0  0
  1  3  1  0  0  0  0
  2  4  1  0  0  0  0
  2  5  1  0  0  0  0
  3  6  2  0  0  0  0
  3  7  1  0  0  0  0
  4  8  2  0  0  0  0
  5  9  1  0  0  0  0
  5 10  1  0  0  0  0
  7 11  1  0  0  0  0
  7 12  1  0  0  0  0
  8 13  1  0  0  0  0
 13 14  1  0  0  0  0
 13 15  1  0  0  0  0
  6  8  1  0  0  0  0
M  END

>  <name>
Altretamine

>  <ROTATABLE_BONDCOUNT>
3

>  <HBDScore>
1.0

>  <dipole>
0.01

>  <logD>
1.72

>  <MPOScore>
6.0

>  <logDScore>
1.0

>  <MW>
210.285

>  <charge_dist(7.4)>
0.69

>  <CNS>
FALSE

>  <ArRings>
1

>  <HBD>
0

>  <BALABAN_INDEX>
2.46

>  <bpKa>
7.75

>  <TPSAScore>
1.0

>  <MWScore>
1.0

>  <bpKaScore>
1.0

>  <logPScore>
1.0

>  <MPO_area>
100.0

>  <TPSA>
48.39

>  <logP>
2.22

$$$$

  Mrv1722703221715202D          

 31 33  0  0  0  0            999 V2000
    0.0000    0.0000    0.0000 O   0  0  0  0  0  0  0  0  0  0  0  0
   -0.5729   -0.5922    0.0000 C   0  0  0  0  0  0  0  0  0  0  0  0
   -1.3776   -0.3927    0.0000 N   0  0  0  0  0  0  0  0  0  0  0  0
   -0.3476   -1.3776    0.0000 C   0  0  1  0  0  0  0  0  0  0  0  0
   -1.6157    0.4056    0.0000 C   0  0  0  0  0  0  0  0  0  0  0  0
   -0.9205   -1.9698    0.0000 C   0  0  0  0  0  0  0  0  0  0  0  0
    0.4441   -1.5643    0.0000 C   0  0  0  0  0  0  0  0  0  0  0  0
   -2.4204    0.6051    0.0000 C   0  0  0  0  0  0  0  0  0  0  0  0
   -1.7252   -1.7702    0.0000 N   0  0  0  0  0  0  0  0  0  0  0  0
    1.0042   -0.9592    0.0000 C   0  0  0  0  0  0  0  0  0  0  0  0
   -2.9933    0.0129    0.0000 O   0  0  0  0  0  0  0  0  0  0  0  0
   -2.6586    1.4033    0.0000 O   0  0  0  0  0  0  0  0  0  0  0  0
   -2.2981   -2.3625    0.0000 C   0  0  0  0  0  0  0  0  0  0  0  0
   -1.9633   -0.9720    0.0000 C   0  0  0  0  0  0  0  0  0  0  0  0
    1.7960   -1.1459    0.0000 C   0  0  0  0  0  0  0  0  0  0  0  0
    0.7660   -0.1609    0.0000 C   0  0  0  0  0  0  0  0  0  0  0  0
   -3.1027   -2.1629    0.0000 C   0  0  2  0  0  0  0  0  0  0  0  0
   -2.7680   -0.7725    0.0000 C   0  0  0  0  0  0  0  0  0  0  0  0
    2.3560   -0.5407    0.0000 C   0  0  0  0  0  0  0  0  0  0  0  0
    1.3260    0.4441    0.0000 C   0  0  0  0  0  0  0  0  0  0  0  0
   -3.3409   -1.3647    0.0000 C   0  0  2  0  0  0  0  0  0  0  0  0
   -3.6757   -2.7551    0.0000 C   0  0  0  0  0  0  0  0  0  0  0  0
    2.1178    0.2575    0.0000 C   0  0  0  0  0  0  0  0  0  0  0  0
   -3.8366   -0.6952    0.0000 C   0  0  0  0  0  0  0  0  0  0  0  0
   -4.0812   -1.7252    0.0000 C   0  0  0  0  0  0  0  0  0  0  0  0
   -4.6606   -0.7854    0.0000 C   0  0  0  0  0  0  0  0  0  0  0  0
   -3.5147    0.0644    0.0000 C   0  0  0  0  0  0  0  0  0  0  0  0
   -5.1562   -0.1159    0.0000 C   0  0  0  0  0  0  0  0  0  0  0  0
   -4.0104    0.7338    0.0000 C   0  0  0  0  0  0  0  0  0  0  0  0
   -5.9802   -0.2060    0.0000 O   0  0  0  0  0  0  0  0  0  0  0  0
   -4.8344    0.6437    0.0000 C   0  0  0  0  0  0  0  0  0  0  0  0
  1  2  2  0  0  0  0
  2  3  1  0  0  0  0
  2  4  1  0  0  0  0
  3  5  1  0  0  0  0
  4  6  1  6  0  0  0
  4  7  1  0  0  0  0
  5  8  1  0  0  0  0
  6  9  1  0  0  0  0
  7 10  1  0  0  0  0
  8 11  2  0  0  0  0
  8 12  1  0  0  0  0
  9 13  1  0  0  0  0
  9 14  1  0  0  0  0
 10 15  2  0  0  0  0
 10 16  1  0  0  0  0
 13 17  1  0  0  0  0
 14 18  1  0  0  0  0
 15 19  1  0  0  0  0
 16 20  2  0  0  0  0
 17 21  1  0  0  0  0
 17 22  1  1  0  0  0
 19 23  2  0  0  0  0
 21 24  1  0  0  0  0
 21 25  1  6  0  0  0
 24 26  2  0  0  0  0
 24 27  1  0  0  0  0
 26 28  1  0  0  0  0
 27 29  2  0  0  0  0
 28 30  1  0  0  0  0
 28 31  2  0  0  0  0
 18 21  1  0  0  0  0
 20 23  1  0  0  0  0
 29 31  1  0  0  0  0
M  END

>  <name>
Alvimopan

>  <ROTATABLE_BONDCOUNT>
8

>  <HBDScore>
0.16666666666666674

>  <dipole>
3.31

>  <logD>
0.82

>  <MPOScore>
3.7056595238095236

>  <logDScore>
1.0

>  <MW>
424.541

>  <charge_dist(7.4)>
-0.00

>  <CNS>
FALSE

>  <ArRings>
2

>  <HBD>
3

>  <BALABAN_INDEX>
1.53

>  <bpKa>
10.66

>  <TPSAScore>
1.0

>  <MWScore>
0.5389928571428572

>  <bpKaScore>
0.0

>  <logPScore>
1.0

>  <MPO_area>
43.81

>  <TPSA>
89.87

>  <logP>
0.82

$$$$

  Mrv1722703221715202D          

 36 37  0  0  0  0            999 V2000
    0.0000    0.0000    0.0000 Cl  0  0  0  0  0  0  0  0  0  0  0  0
    0.8077    0.1410    0.0000 C   0  0  0  0  0  0  0  0  0  0  0  0
    1.3270   -0.4872    0.0000 C   0  0  0  0  0  0  0  0  0  0  0  0
    1.0898    0.9231    0.0000 C   0  0  0  0  0  0  0  0  0  0  0  0
    2.1348   -0.3462    0.0000 C   0  0  0  0  0  0  0  0  0  0  0  0
    1.0321   -1.2565    0.0000 C   0  0  0  0  0  0  0  0  0  0  0  0
    1.8975    1.0642    0.0000 C   0  0  0  0  0  0  0  0  0  0  0  0
    2.4168    0.4359    0.0000 C   0  0  0  0  0  0  0  0  0  0  0  0
    0.2116   -1.3847    0.0000 N   0  3  0  0  0  0  0  0  0  0  0  0
   -0.6090   -1.5129    0.0000 C   0  0  0  0  0  0  0  0  0  0  0  0
    0.0705   -0.5641    0.0000 C   0  0  0  0  0  0  0  0  0  0  0  0
    0.3398   -2.1924    0.0000 C   0  0  0  0  0  0  0  0  0  0  0  0
   -1.1411   -0.8718    0.0000 C   0  0  0  0  0  0  0  0  0  0  0  0
   -0.7116   -0.2692    0.0000 C   0  0  0  0  0  0  0  0  0  0  0  0
   -0.3013   -2.7117    0.0000 C   0  0  0  0  0  0  0  0  0  0  0  0
   -1.9616   -1.0001    0.0000 N   0  0  0  0  0  0  0  0  0  0  0  0
   -2.4938   -0.3590    0.0000 C   0  0  0  0  0  0  0  0  0  0  0  0
   -2.2117    0.4231    0.0000 O   0  0  0  0  0  0  0  0  0  0  0  0
   -3.3143   -0.4872    0.0000 C   0  0  0  0  0  0  0  0  0  0  0  0
   -3.6092   -1.2565    0.0000 O   0  0  0  0  0  0  0  0  0  0  0  0
   -3.8464    0.1539    0.0000 N   0  0  0  0  0  0  0  0  0  0  0  0
   -4.6669    0.0256    0.0000 C   0  0  0  0  0  0  0  0  0  0  0  0
   -5.1990    0.6667    0.0000 C   0  0  0  0  0  0  0  0  0  0  0  0
   -6.0196    0.5385    0.0000 N   0  3  0  0  0  0  0  0  0  0  0  0
   -6.8401    0.4103    0.0000 C   0  0  0  0  0  0  0  0  0  0  0  0
   -6.1606    1.3591    0.0000 C   0  0  0  0  0  0  0  0  0  0  0  0
   -5.8914   -0.2692    0.0000 C   0  0  0  0  0  0  0  0  0  0  0  0
   -7.1350   -0.3590    0.0000 C   0  0  0  0  0  0  0  0  0  0  0  0
   -6.9427    1.6539    0.0000 C   0  0  0  0  0  0  0  0  0  0  0  0
   -5.1221   -0.5513    0.0000 C   0  0  0  0  0  0  0  0  0  0  0  0
   -6.6158   -0.9872    0.0000 C   0  0  0  0  0  0  0  0  0  0  0  0
   -7.9556   -0.4872    0.0000 C   0  0  0  0  0  0  0  0  0  0  0  0
   -5.8080   -0.8462    0.0000 Cl  0  0  0  0  0  0  0  0  0  0  0  0
   -6.9106   -1.7565    0.0000 C   0  0  0  0  0  0  0  0  0  0  0  0
   -8.2505   -1.2565    0.0000 C   0  0  0  0  0  0  0  0  0  0  0  0
   -7.7312   -1.8847    0.0000 C   0  0  0  0  0  0  0  0  0  0  0  0
  1  2  1  0  0  0  0
  2  3  2  0  0  0  0
  2  4  1  0  0  0  0
  3  5  1  0  0  0  0
  3  6  1  0  0  0  0
  4  7  2  0  0  0  0
  5  8  2  0  0  0  0
  6  9  1  0  0  0  0
  9 10  1  0  0  0  0
  9 11  1  0  0  0  0
  9 12  1  0  0  0  0
 10 13  1  0  0  0  0
 11 14  1  0  0  0  0
 12 15  1  0  0  0  0
 13 16  1  0  0  0  0
 16 17  1  0  0  0  0
 17 18  2  0  0  0  0
 17 19  1  0  0  0  0
 19 20  2  0  0  0  0
 19 21  1  0  0  0  0
 21 22  1  0  0  0  0
 22 23  1  0  0  0  0
 23 24  1  0  0  0  0
 24 25  1  0  0  0  0
 24 26  1  0  0  0  0
 24 27  1  0  0  0  0
 25 28  1  0  0  0  0
 26 29  1  0  0  0  0
 27 30  1  0  0  0  0
 28 31  2  0  0  0  0
 28 32  1  0  0  0  0
 31 33  1  0  0  0  0
 31 34  1  0  0  0  0
 32 35  2  0  0  0  0
 34 36  2  0  0  0  0
  7  8  1  0  0  0  0
 35 36  1  0  0  0  0
M  CHG  2   9   1  24   1
M  END

>  <name>
Ambenonium

>  <ROTATABLE_BONDCOUNT>
15

>  <HBDScore>
0.5

>  <dipole>
5.83

>  <logD>
-3.63

>  <MPOScore>
4.5

>  <logDScore>
1.0

>  <MW>
537.57

>  <charge_dist(7.4)>
-0.00

>  <CNS>
FALSE

>  <ArRings>
2

>  <HBD>
2

>  <BALABAN_INDEX>
1.73

>  <bpKa>
-3.62

>  <TPSAScore>
1.0

>  <MWScore>
0.0

>  <bpKaScore>
1.0

>  <logPScore>
1.0

>  <MPO_area>
58.33

>  <TPSA>
58.20

>  <logP>
-3.63

$$$$

  Mrv1722703221715202D          

 28 30  0  0  0  0            999 V2000
    0.0000    0.0000    0.0000 O   0  0  0  0  0  0  0  0  0  0  0  0
    0.2845   -0.3233    0.0000 C   0  0  0  0  0  0  0  0  0  0  0  0
    1.0216    0.0323    0.0000 O   0  0  0  0  0  0  0  0  0  0  0  0
    0.2134   -1.1380    0.0000 C   0  0  1  0  0  0  0  0  0  0  0  0
    0.8859   -1.6036    0.0000 O   0  0  0  0  0  0  0  0  0  0  0  0
   -0.5367   -1.4807    0.0000 C   0  0  0  0  0  0  0  0  0  0  0  0
    1.6230   -1.2480    0.0000 C   0  0  0  0  0  0  0  0  0  0  0  0
   -1.2868   -1.8235    0.0000 O   0  0  0  0  0  0  0  0  0  0  0  0
   -0.1940   -2.2179    0.0000 C   0  0  0  0  0  0  0  0  0  0  0  0
   -0.8924   -0.7307    0.0000 C   0  0  0  0  0  0  0  0  0  0  0  0
    1.6812   -0.4203    0.0000 N   0  0  0  0  0  0  0  0  0  0  0  0
    2.2955   -1.7135    0.0000 N   0  0  0  0  0  0  0  0  0  0  0  0
   -1.3579   -2.6382    0.0000 C   0  0  0  0  0  0  0  0  0  0  0  0
   -0.6725   -2.8904    0.0000 C   0  0  0  0  0  0  0  0  0  0  0  0
    0.6208   -2.2761    0.0000 C   0  0  0  0  0  0  0  0  0  0  0  0
   -1.7200   -0.6596    0.0000 C   0  0  0  0  0  0  0  0  0  0  0  0
   -0.4268   -0.0453    0.0000 C   0  0  0  0  0  0  0  0  0  0  0  0
    2.4184   -0.0646    0.0000 C   0  0  0  0  0  0  0  0  0  0  0  0
    3.0327   -1.3579    0.0000 C   0  0  0  0  0  0  0  0  0  0  0  0
   -0.3298   -3.6275    0.0000 C   0  0  0  0  0  0  0  0  0  0  0  0
    0.9635   -3.0132    0.0000 C   0  0  0  0  0  0  0  0  0  0  0  0
   -2.0757    0.0905    0.0000 C   0  0  0  0  0  0  0  0  0  0  0  0
   -0.7824    0.7048    0.0000 C   0  0  0  0  0  0  0  0  0  0  0  0
    3.0908   -0.5302    0.0000 C   0  0  0  0  0  0  0  0  0  0  0  0
    2.4765    0.7630    0.0000 C   0  0  0  0  0  0  0  0  0  0  0  0
    3.7051   -1.8235    0.0000 C   0  0  0  0  0  0  0  0  0  0  0  0
    0.4849   -3.6858    0.0000 C   0  0  0  0  0  0  0  0  0  0  0  0
   -1.6101    0.7760    0.0000 C   0  0  0  0  0  0  0  0  0  0  0  0
  1  2  2  0  0  0  0
  2  3  1  0  0  0  0
  2  4  1  0  0  0  0
  4  5  1  1  0  0  0
  4  6  1  0  0  0  0
  5  7  1  0  0  0  0
  6  8  1  0  0  0  0
  6  9  1  0  0  0  0
  6 10  1  0  0  0  0
  7 11  2  0  0  0  0
  7 12  1  0  0  0  0
  8 13  1  0  0  0  0
  9 14  2  0  0  0  0
  9 15  1  0  0  0  0
 10 16  2  0  0  0  0
 10 17  1  0  0  0  0
 11 18  1  0  0  0  0
 12 19  2  0  0  0  0
 14 20  1  0  0  0  0
 15 21  2  0  0  0  0
 16 22  1  0  0  0  0
 17 23  2  0  0  0  0
 18 24  2  0  0  0  0
 18 25  1  0  0  0  0
 19 26  1  0  0  0  0
 20 27  2  0  0  0  0
 22 28  2  0  0  0  0
 19 24  1  0  0  0  0
 21 27  1  0  0  0  0
 23 28  1  0  0  0  0
M  END

>  <name>
Ambrisentan

>  <ROTATABLE_BONDCOUNT>
7

>  <HBDScore>
0.8333333333333334

>  <dipole>
3.55

>  <logD>
0.40

>  <MPOScore>
5.451704761904762

>  <logDScore>
1.0

>  <MW>
378.428

>  <charge_dist(7.4)>
-1.00

>  <CNS>
FALSE

>  <ArRings>
3

>  <HBD>
1

>  <BALABAN_INDEX>
1.76

>  <bpKa>
2.48

>  <TPSAScore>
1.0

>  <MWScore>
0.8683714285714286

>  <bpKaScore>
1.0

>  <logPScore>
0.75

>  <MPO_area>
82.78

>  <TPSA>
81.54

>  <logP>
3.50

$$$$

  Mrv1722703221715202D          

 15 15  0  0  0  0            999 V2000
    0.0000    0.0000    0.0000 Cl  0  0  0  0  0  0  0  0  0  0  0  0
   -0.5803    0.5865    0.0000 C   0  0  0  0  0  0  0  0  0  0  0  0
   -1.3788    0.3868    0.0000 N   0  0  0  0  0  0  0  0  0  0  0  0
   -0.3681    1.3851    0.0000 C   0  0  0  0  0  0  0  0  0  0  0  0
   -1.9591    0.9733    0.0000 C   0  0  0  0  0  0  0  0  0  0  0  0
   -0.9483    1.9715    0.0000 N   0  0  0  0  0  0  0  0  0  0  0  0
    0.4180    1.5972    0.0000 N   0  0  0  0  0  0  0  0  0  0  0  0
   -1.7470    1.7719    0.0000 C   0  0  0  0  0  0  0  0  0  0  0  0
   -2.7577    0.7737    0.0000 C   0  0  0  0  0  0  0  0  0  0  0  0
   -2.3272    2.3584    0.0000 N   0  0  0  0  0  0  0  0  0  0  0  0
   -2.9823   -0.0125    0.0000 O   0  0  0  0  0  0  0  0  0  0  0  0
   -3.3379    1.3601    0.0000 N   0  0  0  0  0  0  0  0  0  0  0  0
   -4.1365    1.1605    0.0000 C   0  0  0  0  0  0  0  0  0  0  0  0
   -4.7167    1.7470    0.0000 N   0  0  0  0  0  0  0  0  0  0  0  0
   -4.3611    0.3743    0.0000 N   0  0  0  0  0  0  0  0  0  0  0  0
  1  2  1  0  0  0  0
  2  3  2  0  0  0  0
  2  4  1  0  0  0  0
  3  5  1  0  0  0  0
  4  6  2  0  0  0  0
  4  7  1  0  0  0  0
  5  8  2  0  0  0  0
  5  9  1  0  0  0  0
  8 10  1  0  0  0  0
  9 11  2  0  0  0  0
  9 12  1  0  0  0  0
 12 13  2  0  0  0  0
 13 14  1  0  0  0  0
 13 15  1  0  0  0  0
  6  8  1  0  0  0  0
M  END

>  <name>
Amiloride

>  <ROTATABLE_BONDCOUNT>
1

>  <HBDScore>
0.0

>  <dipole>
3.65

>  <logD>
-0.89

>  <MPOScore>
4.0

>  <logDScore>
1.0

>  <MW>
229.63

>  <charge_dist(7.4)>
0.00

>  <CNS>
FALSE

>  <ArRings>
1

>  <HBD>
4

>  <BALABAN_INDEX>
2.36

>  <bpKa>
1.92

>  <TPSAScore>
0.0

>  <MWScore>
1.0

>  <bpKaScore>
1.0

>  <logPScore>
1.0

>  <MPO_area>
50.0

>  <TPSA>
159.29

>  <logP>
-0.89

$$$$

  Mrv1722703221715202D          

  9  8  0  0  0  0            999 V2000
    0.0000    0.0000    0.0000 O   0  0  0  0  0  0  0  0  0  0  0  0
   -0.0453   -0.8156    0.0000 C   0  0  0  0  0  0  0  0  0  0  0  0
    0.6408   -1.2492    0.0000 O   0  0  0  0  0  0  0  0  0  0  0  0
   -0.7832   -1.1845    0.0000 C   0  0  0  0  0  0  0  0  0  0  0  0
   -1.4823   -0.7314    0.0000 C   0  0  0  0  0  0  0  0  0  0  0  0
   -2.2202   -1.1004    0.0000 C   0  0  0  0  0  0  0  0  0  0  0  0
   -2.9193   -0.6538    0.0000 C   0  0  0  0  0  0  0  0  0  0  0  0
   -3.6572   -1.0227    0.0000 C   0  0  0  0  0  0  0  0  0  0  0  0
   -4.3562   -0.5696    0.0000 N   0  0  0  0  0  0  0  0  0  0  0  0
  1  2  2  0  0  0  0
  2  3  1  0  0  0  0
  2  4  1  0  0  0  0
  4  5  1  0  0  0  0
  5  6  1  0  0  0  0
  6  7  1  0  0  0  0
  7  8  1  0  0  0  0
  8  9  1  0  0  0  0
M  END

>  <name>
Aminocaproic_acid

>  <ROTATABLE_BONDCOUNT>
5

>  <HBDScore>
0.5

>  <dipole>
1.75

>  <logD>
-2.00

>  <MPOScore>
4.5

>  <logDScore>
1.0

>  <MW>
131.175

>  <charge_dist(7.4)>
-0.00

>  <CNS>
FALSE

>  <ArRings>
0

>  <HBD>
2

>  <BALABAN_INDEX>
2.75

>  <bpKa>
10.21

>  <TPSAScore>
1.0

>  <MWScore>
1.0

>  <bpKaScore>
0.0

>  <logPScore>
1.0

>  <MPO_area>
58.33

>  <TPSA>
63.32

>  <logP>
-2.00

$$$$

  Mrv1722703221715202D          

 11 11  0  0  0  0            999 V2000
    0.0000    0.0000    0.0000 O   0  0  0  0  0  0  0  0  0  0  0  0
   -0.4567   -0.6754    0.0000 C   0  0  0  0  0  0  0  0  0  0  0  0
   -0.0965   -1.4023    0.0000 O   0  0  0  0  0  0  0  0  0  0  0  0
   -1.2801   -0.6240    0.0000 C   0  0  0  0  0  0  0  0  0  0  0  0
   -1.6532    0.1158    0.0000 C   0  0  0  0  0  0  0  0  0  0  0  0
   -1.7368   -1.2994    0.0000 C   0  0  0  0  0  0  0  0  0  0  0  0
   -1.2094    0.8041    0.0000 O   0  0  0  0  0  0  0  0  0  0  0  0
   -2.4766    0.1673    0.0000 C   0  0  0  0  0  0  0  0  0  0  0  0
   -2.5602   -1.2480    0.0000 C   0  0  0  0  0  0  0  0  0  0  0  0
   -2.9333   -0.5082    0.0000 C   0  0  0  0  0  0  0  0  0  0  0  0
   -3.7567   -0.4567    0.0000 N   0  0  0  0  0  0  0  0  0  0  0  0
  1  2  2  0  0  0  0
  2  3  1  0  0  0  0
  2  4  1  0  0  0  0
  4  5  2  0  0  0  0
  4  6  1  0  0  0  0
  5  7  1  0  0  0  0
  5  8  1  0  0  0  0
  6  9  2  0  0  0  0
  8 10  2  0  0  0  0
 10 11  1  0  0  0  0
  9 10  1  0  0  0  0
M  END

>  <name>
Aminosalicylic_acid

>  <ROTATABLE_BONDCOUNT>
1

>  <HBDScore>
0.16666666666666674

>  <dipole>
10.91

>  <logD>
-2.23

>  <MPOScore>
5.166666666666667

>  <logDScore>
1.0

>  <MW>
153.137

>  <charge_dist(7.4)>
-1.00

>  <CNS>
FALSE

>  <ArRings>
1

>  <HBD>
3

>  <BALABAN_INDEX>
2.22

>  <bpKa>
2.19

>  <TPSAScore>
1.0

>  <MWScore>
1.0

>  <bpKaScore>
1.0

>  <logPScore>
1.0

>  <MPO_area>
72.22

>  <TPSA>
83.55

>  <logP>
0.83

$$$$

  Mrv1722703221715202D          

 25 27  0  0  0  0            999 V2000
    0.0000    0.0000    0.0000 S   0  0  0  0  0  0  0  0  0  0  0  0
   -0.6611   -0.5040    0.0000 C   0  0  0  0  0  0  0  0  0  0  0  0
    0.6807   -0.4582    0.0000 C   0  0  2  0  0  0  0  0  0  0  0  0
   -0.3797   -1.2764    0.0000 C   0  0  2  0  0  0  0  0  0  0  0  0
   -1.4138   -0.8640    0.0000 C   0  0  0  0  0  0  0  0  0  0  0  0
   -1.1062    0.2094    0.0000 C   0  0  0  0  0  0  0  0  0  0  0  0
    0.4451   -1.2502    0.0000 N   0  0  0  0  0  0  0  0  0  0  0  0
    1.4727   -0.6807    0.0000 C   0  0  2  0  0  0  0  0  0  0  0  0
   -0.8509   -1.9571    0.0000 C   0  0  0  0  0  0  0  0  0  0  0  0
    1.2371   -1.4727    0.0000 C   0  0  0  0  0  0  0  0  0  0  0  0
    2.1927   -0.2684    0.0000 N   0  0  0  0  0  0  0  0  0  0  0  0
   -0.4909   -2.6967    0.0000 O   0  0  0  0  0  0  0  0  0  0  0  0
   -1.6887   -1.8917    0.0000 O   0  0  0  0  0  0  0  0  0  0  0  0
    1.6364   -2.1927    0.0000 O   0  0  0  0  0  0  0  0  0  0  0  0
    2.8997   -0.6873    0.0000 C   0  0  0  0  0  0  0  0  0  0  0  0
    2.8800   -1.5120    0.0000 O   0  0  0  0  0  0  0  0  0  0  0  0
    3.6196   -0.2749    0.0000 C   0  0  1  0  0  0  0  0  0  0  0  0
    3.6262    0.5629    0.0000 N   0  0  0  0  0  0  0  0  0  0  0  0
    4.3265   -0.6938    0.0000 C   0  0  0  0  0  0  0  0  0  0  0  0
    4.3069   -1.5185    0.0000 C   0  0  0  0  0  0  0  0  0  0  0  0
    5.0466   -0.2815    0.0000 C   0  0  0  0  0  0  0  0  0  0  0  0
    5.0138   -1.9375    0.0000 C   0  0  0  0  0  0  0  0  0  0  0  0
    5.7535   -0.7003    0.0000 C   0  0  0  0  0  0  0  0  0  0  0  0
    5.7338   -1.5251    0.0000 C   0  0  0  0  0  0  0  0  0  0  0  0
    6.4407   -1.9440    0.0000 O   0  0  0  0  0  0  0  0  0  0  0  0
  1  2  1  0  0  0  0
  3  1  1  1  0  0  0
  2  4  1  0  0  0  0
  2  5  1  0  0  0  0
  2  6  1  0  0  0  0
  3  7  1  0  0  0  0
  3  8  1  0  0  0  0
  4  9  1  6  0  0  0
  7 10  1  0  0  0  0
  8 11  1  1  0  0  0
  9 12  2  0  0  0  0
  9 13  1  0  0  0  0
 10 14  2  0  0  0  0
 11 15  1  0  0  0  0
 15 16  2  0  0  0  0
 15 17  1  0  0  0  0
 17 18  1  1  0  0  0
 17 19  1  0  0  0  0
 19 20  2  0  0  0  0
 19 21  1  0  0  0  0
 20 22  1  0  0  0  0
 21 23  2  0  0  0  0
 22 24  2  0  0  0  0
 24 25  1  0  0  0  0
  4  7  1  0  0  0  0
  8 10  1  0  0  0  0
 23 24  1  0  0  0  0
M  END

>  <name>
Amoxicillin

>  <ROTATABLE_BONDCOUNT>
4

>  <HBDScore>
0.0

>  <dipole>
7.29

>  <logD>
-2.67

>  <MPOScore>
3.9614285714285717

>  <logDScore>
1.0

>  <MW>
365.40

>  <charge_dist(7.4)>
-0.61

>  <CNS>
FALSE

>  <ArRings>
1

>  <HBD>
4

>  <BALABAN_INDEX>
1.41

>  <bpKa>
7.22

>  <TPSAScore>
0.0

>  <MWScore>
0.9614285714285716

>  <bpKaScore>
1.0

>  <logPScore>
1.0

>  <MPO_area>
49.36

>  <TPSA>
132.96

>  <logP>
-2.31

$$$$

  Mrv1722703221715202D          

 35 37  0  0  0  0            999 V2000
    0.0000    0.0000    0.0000 S   0  0  0  0  0  0  0  0  0  0  0  0
    0.5064   -0.6411    0.0000 O   0  0  0  0  0  0  0  0  0  0  0  0
   -0.5192    0.6539    0.0000 O   0  0  0  0  0  0  0  0  0  0  0  0
    0.6411    0.5192    0.0000 N   0  0  0  0  0  0  0  0  0  0  0  0
   -0.6539   -0.5064    0.0000 C   0  0  0  0  0  0  0  0  0  0  0  0
    1.3975    0.2244    0.0000 C   0  0  0  0  0  0  0  0  0  0  0  0
    0.5129    1.3398    0.0000 C   0  0  0  0  0  0  0  0  0  0  0  0
   -1.4232   -0.1987    0.0000 C   0  0  0  0  0  0  0  0  0  0  0  0
   -0.5385   -1.3142    0.0000 C   0  0  0  0  0  0  0  0  0  0  0  0
    1.5129   -0.5834    0.0000 C   0  0  1  0  0  0  0  0  0  0  0  0
   -0.2564    1.6475    0.0000 C   0  0  0  0  0  0  0  0  0  0  0  0
   -2.0770   -0.7052    0.0000 C   0  0  0  0  0  0  0  0  0  0  0  0
   -1.1924   -1.8206    0.0000 C   0  0  0  0  0  0  0  0  0  0  0  0
    0.8590   -1.0898    0.0000 O   0  0  0  0  0  0  0  0  0  0  0  0
    2.2693   -0.8782    0.0000 C   0  0  1  0  0  0  0  0  0  0  0  0
   -0.3846    2.4680    0.0000 C   0  0  0  0  0  0  0  0  0  0  0  0
   -0.9103    1.1411    0.0000 C   0  0  0  0  0  0  0  0  0  0  0  0
   -1.9616   -1.5129    0.0000 C   0  0  0  0  0  0  0  0  0  0  0  0
    2.9104   -0.3590    0.0000 N   0  0  0  0  0  0  0  0  0  0  0  0
    2.3847   -1.6860    0.0000 C   0  0  0  0  0  0  0  0  0  0  0  0
   -2.6155   -2.0193    0.0000 N   0  0  0  0  0  0  0  0  0  0  0  0
    2.7822    0.4616    0.0000 C   0  0  0  0  0  0  0  0  0  0  0  0
    3.1412   -1.9809    0.0000 C   0  0  0  0  0  0  0  0  0  0  0  0
    2.0129    0.7693    0.0000 O   0  0  0  0  0  0  0  0  0  0  0  0
    3.4232    0.9808    0.0000 O   0  0  0  0  0  0  0  0  0  0  0  0
    3.2565   -2.7886    0.0000 C   0  0  0  0  0  0  0  0  0  0  0  0
    3.7823   -1.4616    0.0000 C   0  0  0  0  0  0  0  0  0  0  0  0
    3.2950    1.8014    0.0000 C   0  0  2  0  0  0  0  0  0  0  0  0
    4.0130   -3.0835    0.0000 C   0  0  0  0  0  0  0  0  0  0  0  0
    4.5387   -1.7565    0.0000 C   0  0  0  0  0  0  0  0  0  0  0  0
    3.8784    2.3847    0.0000 C   0  0  0  0  0  0  0  0  0  0  0  0
    2.5578    2.1924    0.0000 C   0  0  0  0  0  0  0  0  0  0  0  0
    4.6541   -2.5642    0.0000 C   0  0  0  0  0  0  0  0  0  0  0  0
    3.5065    3.1283    0.0000 O   0  0  0  0  0  0  0  0  0  0  0  0
    2.6925    3.0130    0.0000 C   0  0  0  0  0  0  0  0  0  0  0  0
  1  2  2  0  0  0  0
  1  3  2  0  0  0  0
  1  4  1  0  0  0  0
  1  5  1  0  0  0  0
  4  6  1  0  0  0  0
  4  7  1  0  0  0  0
  5  8  2  0  0  0  0
  5  9  1  0  0  0  0
  6 10  1  0  0  0  0
  7 11  1  0  0  0  0
  8 12  1  0  0  0  0
  9 13  2  0  0  0  0
 10 14  1  6  0  0  0
 10 15  1  0  0  0  0
 11 16  1  0  0  0  0
 11 17  1  0  0  0  0
 12 18  2  0  0  0  0
 15 19  1  1  0  0  0
 15 20  1  0  0  0  0
 18 21  1  0  0  0  0
 19 22  1  0  0  0  0
 20 23  1  0  0  0  0
 22 24  2  0  0  0  0
 22 25  1  0  0  0  0
 23 26  2  0  0  0  0
 23 27  1  0  0  0  0
 28 25  1  1  0  0  0
 26 29  1  0  0  0  0
 27 30  2  0  0  0  0
 28 31  1  0  0  0  0
 28 32  1  0  0  0  0
 29 33  2  0  0  0  0
 31 34  1  0  0  0  0
 32 35  1  0  0  0  0
 13 18  1  0  0  0  0
 30 33  1  0  0  0  0
 34 35  1  0  0  0  0
M  END

>  <name>
Amprenavir

>  <ROTATABLE_BONDCOUNT>
11

>  <HBDScore>
0.16666666666666674

>  <dipole>
15.09

>  <logD>
2.43

>  <MPOScore>
2.951666666666667

>  <logDScore>
0.7849999999999999

>  <MW>
505.63

>  <charge_dist(7.4)>
0.00

>  <CNS>
FALSE

>  <ArRings>
2

>  <HBD>
3

>  <BALABAN_INDEX>
1.63

>  <bpKa>
2.39

>  <TPSAScore>
0.0

>  <MWScore>
0.0

>  <bpKaScore>
1.0

>  <logPScore>
1.0

>  <MPO_area>
31.93

>  <TPSA>
131.19

>  <logP>
2.43

$$$$

  Mrv1722703221715202D          

 16 18  0  0  0  0            999 V2000
    0.0000    0.0000    0.0000 Cl  0  0  0  0  0  0  0  0  0  0  0  0
   -0.1095   -0.8119    0.0000 C   0  0  0  0  0  0  0  0  0  0  0  0
    0.5412   -1.3016    0.0000 C   0  0  0  0  0  0  0  0  0  0  0  0
   -0.8763   -1.1276    0.0000 C   0  0  0  0  0  0  0  0  0  0  0  0
    1.2951   -0.9730    0.0000 Cl  0  0  0  0  0  0  0  0  0  0  0  0
    0.4317   -2.1135    0.0000 C   0  0  0  0  0  0  0  0  0  0  0  0
   -0.9859   -1.9395    0.0000 C   0  0  0  0  0  0  0  0  0  0  0  0
   -1.5400   -0.6250    0.0000 C   0  0  0  0  0  0  0  0  0  0  0  0
   -0.3351   -2.4292    0.0000 C   0  0  0  0  0  0  0  0  0  0  0  0
   -1.7526   -2.2552    0.0000 N   0  0  0  0  0  0  0  0  0  0  0  0
   -2.3068   -0.9408    0.0000 N   0  0  0  0  0  0  0  0  0  0  0  0
   -2.4163   -1.7526    0.0000 C   0  0  0  0  0  0  0  0  0  0  0  0
   -3.0607   -0.5863    0.0000 C   0  0  0  0  0  0  0  0  0  0  0  0
   -3.2346   -1.9008    0.0000 N   0  0  0  0  0  0  0  0  0  0  0  0
   -3.6277   -1.1856    0.0000 C   0  0  0  0  0  0  0  0  0  0  0  0
   -4.4525   -1.0760    0.0000 O   0  0  0  0  0  0  0  0  0  0  0  0
  1  2  1  0  0  0  0
  2  3  2  0  0  0  0
  2  4  1  0  0  0  0
  3  5  1  0  0  0  0
  3  6  1  0  0  0  0
  4  7  2  0  0  0  0
  4  8  1  0  0  0  0
  6  9  2  0  0  0  0
  7 10  1  0  0  0  0
  8 11  1  0  0  0  0
 10 12  1  0  0  0  0
 11 13  1  0  0  0  0
 12 14  2  0  0  0  0
 13 15  1  0  0  0  0
 15 16  2  0  0  0  0
  7  9  1  0  0  0  0
 11 12  1  0  0  0  0
 14 15  1  0  0  0  0
M  END

>  <name>
Anagrelide

>  <ROTATABLE_BONDCOUNT>
0

>  <HBDScore>
0.8333333333333334

>  <dipole>
8.02

>  <logD>
1.68

>  <MPOScore>
5.833333333333333

>  <logDScore>
1.0

>  <MW>
256.09

>  <charge_dist(7.4)>
-0.00

>  <CNS>
FALSE

>  <ArRings>
1

>  <HBD>
1

>  <BALABAN_INDEX>
1.54

>  <bpKa>
-0.59

>  <TPSAScore>
1.0

>  <MWScore>
1.0

>  <bpKaScore>
1.0

>  <logPScore>
1.0

>  <MPO_area>
94.44

>  <TPSA>
44.70

>  <logP>
1.68

$$$$

  Mrv1722703221715202D          

 22 23  0  0  0  0            999 V2000
    0.0000    0.0000    0.0000 N   0  0  0  0  0  0  0  0  0  0  0  0
    0.1966   -0.7994    0.0000 C   0  0  0  0  0  0  0  0  0  0  0  0
    0.3932   -1.5988    0.0000 C   0  0  0  0  0  0  0  0  0  0  0  0
    0.5897   -2.3982    0.0000 C   0  0  0  0  0  0  0  0  0  0  0  0
   -0.4193   -1.7954    0.0000 C   0  0  0  0  0  0  0  0  0  0  0  0
    1.1926   -1.3891    0.0000 C   0  0  0  0  0  0  0  0  0  0  0  0
    1.3826   -2.6210    0.0000 C   0  0  0  0  0  0  0  0  0  0  0  0
   -0.0131   -2.9748    0.0000 C   0  0  0  0  0  0  0  0  0  0  0  0
    1.5791   -3.4204    0.0000 C   0  0  0  0  0  0  0  0  0  0  0  0
    0.1835   -3.7742    0.0000 C   0  0  0  0  0  0  0  0  0  0  0  0
    0.9763   -3.9970    0.0000 C   0  0  0  0  0  0  0  0  0  0  0  0
    2.3720   -3.6432    0.0000 C   0  0  0  0  0  0  0  0  0  0  0  0
   -0.4193   -4.3508    0.0000 C   0  0  0  0  0  0  0  0  0  0  0  0
    3.1649   -3.8660    0.0000 C   0  0  0  0  0  0  0  0  0  0  0  0
    2.5948   -2.8372    0.0000 C   0  0  0  0  0  0  0  0  0  0  0  0
    2.1361   -4.4360    0.0000 C   0  0  0  0  0  0  0  0  0  0  0  0
   -1.2253   -4.1150    0.0000 N   0  0  0  0  0  0  0  0  0  0  0  0
    3.9577   -4.0887    0.0000 N   0  0  0  0  0  0  0  0  0  0  0  0
   -1.8871   -4.6261    0.0000 N   0  0  0  0  0  0  0  0  0  0  0  0
   -1.5202   -3.3287    0.0000 C   0  0  0  0  0  0  0  0  0  0  0  0
   -2.5882   -4.1542    0.0000 C   0  0  0  0  0  0  0  0  0  0  0  0
   -2.3589   -3.3549    0.0000 N   0  0  0  0  0  0  0  0  0  0  0  0
  1  2  3  0  0  0  0
  2  3  1  0  0  0  0
  3  4  1  0  0  0  0
  3  5  1  0  0  0  0
  3  6  1  0  0  0  0
  4  7  2  0  0  0  0
  4  8  1  0  0  0  0
  7  9  1  0  0  0  0
  8 10  2  0  0  0  0
  9 11  2  0  0  0  0
  9 12  1  0  0  0  0
 10 13  1  0  0  0  0
 12 14  1  0  0  0  0
 12 15  1  0  0  0  0
 12 16  1  0  0  0  0
 13 17  1  0  0  0  0
 14 18  3  0  0  0  0
 17 19  1  0  0  0  0
 17 20  1  0  0  0  0
 19 21  2  0  0  0  0
 20 22  2  0  0  0  0
 10 11  1  0  0  0  0
 21 22  1  0  0  0  0
M  END

>  <name>
Anastrozole

>  <ROTATABLE_BONDCOUNT>
4

>  <HBDScore>
1.0

>  <dipole>
3.39

>  <logD>
3.03

>  <MPOScore>
5.470000000000001

>  <logDScore>
0.4850000000000001

>  <MW>
293.374

>  <charge_dist(7.4)>
0.00

>  <CNS>
FALSE

>  <ArRings>
2

>  <HBD>
0

>  <BALABAN_INDEX>
1.90

>  <bpKa>
2

>  <TPSAScore>
1.0

>  <MWScore>
1.0

>  <bpKaScore>
1.0

>  <logPScore>
0.9850000000000001

>  <MPO_area>
82.46

>  <TPSA>
78.29

>  <logP>
3.03

$$$$

  Mrv1722703221715202D          

 19 21  0  0  0  0            999 V2000
    0.0000    0.0000    0.0000 O   0  0  0  0  0  0  0  0  0  0  0  0
    0.2129    0.7936    0.0000 C   0  0  0  0  0  0  0  0  0  0  0  0
    0.9742    1.0839    0.0000 C   0  0  0  0  0  0  0  0  0  0  0  0
   -0.3032    1.4452    0.0000 C   0  0  0  0  0  0  0  0  0  0  0  0
    0.9355    1.9097    0.0000 C   0  0  0  0  0  0  0  0  0  0  0  0
    1.6968    0.7097    0.0000 C   0  0  0  0  0  0  0  0  0  0  0  0
   -1.1290    1.4194    0.0000 C   0  0  0  0  0  0  0  0  0  0  0  0
    0.1420    2.1355    0.0000 C   0  0  0  0  0  0  0  0  0  0  0  0
    1.6194    2.3548    0.0000 C   0  0  0  0  0  0  0  0  0  0  0  0
    2.3807    1.1548    0.0000 C   0  0  0  0  0  0  0  0  0  0  0  0
   -1.5742    2.1161    0.0000 C   0  0  0  0  0  0  0  0  0  0  0  0
   -1.5161    0.6968    0.0000 C   0  0  0  0  0  0  0  0  0  0  0  0
   -0.1484    2.9097    0.0000 O   0  0  0  0  0  0  0  0  0  0  0  0
    2.3420    1.9806    0.0000 C   0  0  0  0  0  0  0  0  0  0  0  0
   -2.4000    2.0903    0.0000 C   0  0  0  0  0  0  0  0  0  0  0  0
   -2.3420    0.6710    0.0000 C   0  0  0  0  0  0  0  0  0  0  0  0
   -2.7871    1.3678    0.0000 C   0  0  0  0  0  0  0  0  0  0  0  0
   -3.6129    1.3419    0.0000 O   0  0  0  0  0  0  0  0  0  0  0  0
   -4.0581    2.0387    0.0000 C   0  0  0  0  0  0  0  0  0  0  0  0
  1  2  2  0  0  0  0
  2  3  1  0  0  0  0
  2  4  1  0  0  0  0
  3  5  2  0  0  0  0
  3  6  1  0  0  0  0
  4  7  1  0  0  0  0
  4  8  1  0  0  0  0
  5  9  1  0  0  0  0
  6 10  2  0  0  0  0
  7 11  2  0  0  0  0
  7 12  1  0  0  0  0
  8 13  2  0  0  0  0
  9 14  2  0  0  0  0
 11 15  1  0  0  0  0
 12 16  2  0  0  0  0
 15 17  2  0  0  0  0
 17 18  1  0  0  0  0
 18 19  1  0  0  0  0
  5  8  1  0  0  0  0
 10 14  1  0  0  0  0
 16 17  1  0  0  0  0
M  END

>  <name>
Anisindione

>  <ROTATABLE_BONDCOUNT>
2

>  <HBDScore>
1.0

>  <dipole>
7.09

>  <logD>
0.04

>  <MPOScore>
6.0

>  <logDScore>
1.0

>  <MW>
252.269

>  <charge_dist(7.4)>
-1.00

>  <CNS>
FALSE

>  <ArRings>
2

>  <HBD>
0

>  <BALABAN_INDEX>
1.59

>  <bpKa>
-4.82

>  <TPSAScore>
1.0

>  <MWScore>
1.0

>  <bpKaScore>
1.0

>  <logPScore>
1.0

>  <MPO_area>
100.0

>  <TPSA>
43.37

>  <logP>
2.72

$$$$

  Mrv1722703221715202D          

 20 21  0  0  1  0            999 V2000
    0.0000    0.0000    0.0000 O   0  0  0  0  0  0  0  0  0  0  0  0
   -0.2674   -0.7761    0.0000 C   0  0  0  0  0  0  0  0  0  0  0  0
    0.2739   -1.3892    0.0000 O   0  0  0  0  0  0  0  0  0  0  0  0
   -1.0827   -0.9392    0.0000 C   0  0  0  0  0  0  0  0  0  0  0  0
    1.0762   -1.2131    0.0000 C   0  0  0  0  0  0  0  0  0  0  0  0
   -1.6371   -0.3131    0.0000 C   0  0  0  0  0  0  0  0  0  0  0  0
   -1.3501   -1.7154    0.0000 C   0  0  0  0  0  0  0  0  0  0  0  0
    1.3305   -0.4240    0.0000 C   0  0  0  0  0  0  0  0  0  0  0  0
    1.6175   -1.8262    0.0000 C   0  0  0  0  0  0  0  0  0  0  0  0
   -2.4524   -0.4761    0.0000 C   0  0  0  0  0  0  0  0  0  0  0  0
   -2.1654   -1.8784    0.0000 C   0  0  0  0  0  0  0  0  0  0  0  0
    2.1523   -0.3391    0.0000 C   0  0  1  0  0  0  0  0  0  0  0  0
    2.4198   -1.6501    0.0000 C   0  0  2  0  0  0  0  0  0  0  0  0
   -3.0068    0.1500    0.0000 C   0  0  0  0  0  0  0  0  0  0  0  0
   -2.4328   -2.6546    0.0000 C   0  0  0  0  0  0  0  0  0  0  0  0
    1.8067   -1.0827    0.0000 N   0  3  0  0  0  0  0  0  0  0  0  0
    2.9676   -0.4240    0.0000 C   0  0  0  0  0  0  0  0  0  0  0  0
    3.1307   -1.2327    0.0000 C   0  0  0  0  0  0  0  0  0  0  0  0
    1.1675   -1.6045    0.0000 C   0  0  0  0  0  0  0  0  0  0  0  0
    1.3762   -0.9522    0.0000 C   0  0  0  0  0  0  0  0  0  0  0  0
  1  2  2  0  0  0  0
  2  3  1  0  0  0  0
  2  4  1  0  0  0  0
  3  5  1  0  0  0  0
  4  6  1  0  0  0  0
  4  7  1  0  0  0  0
  5  8  1  0  0  0  0
  5  9  1  0  0  0  0
  6 10  1  0  0  0  0
  7 11  1  0  0  0  0
  8 12  1  0  0  0  0
  9 13  1  0  0  0  0
 10 14  1  0  0  0  0
 11 15  1  0  0  0  0
 12 16  1  1  0  0  0
 12 17  1  0  0  0  0
 13 18  1  0  0  0  0
 16 19  1  0  0  0  0
 16 20  1  0  0  0  0
 13 16  1  1  0  0  0
 17 18  1  0  0  0  0
M  CHG  1  16   1
M  END

>  <name>
Anisotropine

>  <ROTATABLE_BONDCOUNT>
7

>  <HBDScore>
1.0

>  <dipole>
16.84

>  <logD>
-0.67

>  <MPOScore>
5.315

>  <logDScore>
1.0

>  <MW>
282.447

>  <charge_dist(7.4)>
0.00

>  <CNS>
FALSE

>  <ArRings>
0

>  <HBD>
0

>  <BALABAN_INDEX>
1.88

>  <bpKa>
-7.08

>  <TPSAScore>
0.31500000000000006

>  <MWScore>
1.0

>  <bpKaScore>
1.0

>  <logPScore>
1.0

>  <MPO_area>
77.17

>  <TPSA>
26.30

>  <logP>
-0.67

$$$$

  Mrv1722703221715202D          

 34 38  0  0  0  0            999 V2000
    0.0000    0.0000    0.0000 O   0  0  0  0  0  0  0  0  0  0  0  0
    0.1626    0.8131    0.0000 C   0  0  0  0  0  0  0  0  0  0  0  0
   -0.4618    1.3660    0.0000 N   0  0  0  0  0  0  0  0  0  0  0  0
    0.9432    1.0798    0.0000 C   0  0  0  0  0  0  0  0  0  0  0  0
   -1.2554    1.1123    0.0000 C   0  0  0  0  0  0  0  0  0  0  0  0
   -0.2992    2.1791    0.0000 C   0  0  0  0  0  0  0  0  0  0  0  0
    1.6522    0.6765    0.0000 N   0  0  0  0  0  0  0  0  0  0  0  0
    1.1058    1.8928    0.0000 C   0  0  0  0  0  0  0  0  0  0  0  0
   -1.4310    0.3122    0.0000 C   0  0  0  0  0  0  0  0  0  0  0  0
   -1.8798    1.6652    0.0000 C   0  0  0  0  0  0  0  0  0  0  0  0
    0.4814    2.4457    0.0000 C   0  0  0  0  0  0  0  0  0  0  0  0
    2.2571    1.2424    0.0000 N   0  0  0  0  0  0  0  0  0  0  0  0
    1.7367   -0.1366    0.0000 C   0  0  0  0  0  0  0  0  0  0  0  0
    1.9189    1.9904    0.0000 C   0  0  0  0  0  0  0  0  0  0  0  0
   -2.2245    0.0585    0.0000 C   0  0  0  0  0  0  0  0  0  0  0  0
   -2.6734    1.4115    0.0000 C   0  0  0  0  0  0  0  0  0  0  0  0
    1.0667   -0.6179    0.0000 C   0  0  0  0  0  0  0  0  0  0  0  0
    2.4847   -0.4618    0.0000 C   0  0  0  0  0  0  0  0  0  0  0  0
    2.3221    2.7124    0.0000 C   0  0  0  0  0  0  0  0  0  0  0  0
   -2.8490    0.6114    0.0000 C   0  0  0  0  0  0  0  0  0  0  0  0
    1.1513   -1.4310    0.0000 C   0  0  0  0  0  0  0  0  0  0  0  0
    2.5693   -1.2749    0.0000 C   0  0  0  0  0  0  0  0  0  0  0  0
    1.8993    3.4344    0.0000 O   0  0  0  0  0  0  0  0  0  0  0  0
    3.1417    2.7254    0.0000 N   0  0  0  0  0  0  0  0  0  0  0  0
   -3.6426    0.3577    0.0000 N   0  0  0  0  0  0  0  0  0  0  0  0
    1.8993   -1.7562    0.0000 C   0  0  0  0  0  0  0  0  0  0  0  0
   -4.2670    0.9107    0.0000 C   0  0  0  0  0  0  0  0  0  0  0  0
   -3.8182   -0.4423    0.0000 C   0  0  0  0  0  0  0  0  0  0  0  0
    1.9839   -2.5693    0.0000 O   0  0  0  0  0  0  0  0  0  0  0  0
   -4.1044    1.7237    0.0000 O   0  0  0  0  0  0  0  0  0  0  0  0
   -5.0606    0.6570    0.0000 C   0  0  0  0  0  0  0  0  0  0  0  0
   -4.6118   -0.6960    0.0000 C   0  0  0  0  0  0  0  0  0  0  0  0
    1.3139   -3.0506    0.0000 C   0  0  0  0  0  0  0  0  0  0  0  0
   -5.2362   -0.1431    0.0000 C   0  0  0  0  0  0  0  0  0  0  0  0
  1  2  2  0  0  0  0
  2  3  1  0  0  0  0
  2  4  1  0  0  0  0
  3  5  1  0  0  0  0
  3  6  1  0  0  0  0
  4  7  1  0  0  0  0
  4  8  2  0  0  0  0
  5  9  2  0  0  0  0
  5 10  1  0  0  0  0
  6 11  1  0  0  0  0
  7 12  1  0  0  0  0
  7 13  1  0  0  0  0
  8 14  1  0  0  0  0
  9 15  1  0  0  0  0
 10 16  2  0  0  0  0
 13 17  2  0  0  0  0
 13 18  1  0  0  0  0
 14 19  1  0  0  0  0
 15 20  2  0  0  0  0
 17 21  1  0  0  0  0
 18 22  2  0  0  0  0
 19 23  2  0  0  0  0
 19 24  1  0  0  0  0
 20 25  1  0  0  0  0
 21 26  2  0  0  0  0
 25 27  1  0  0  0  0
 25 28  1  0  0  0  0
 26 29  1  0  0  0  0
 27 30  2  0  0  0  0
 27 31  1  0  0  0  0
 28 32  1  0  0  0  0
 29 33  1  0  0  0  0
 31 34  1  0  0  0  0
  8 11  1  0  0  0  0
 12 14  2  0  0  0  0
 16 20  1  0  0  0  0
 22 26  1  0  0  0  0
 32 34  1  0  0  0  0
M  END

>  <name>
Apixaban

>  <ROTATABLE_BONDCOUNT>
5

>  <HBDScore>
0.8333333333333334

>  <dipole>
5.26

>  <logD>
1.83

>  <MPOScore>
4.430576190476191

>  <logDScore>
1.0

>  <MW>
459.506

>  <charge_dist(7.4)>
-0.00

>  <CNS>
FALSE

>  <ArRings>
3

>  <HBD>
1

>  <BALABAN_INDEX>
1.17

>  <bpKa>
-1.58

>  <TPSAScore>
0.30799999999999983

>  <MWScore>
0.28924285714285736

>  <bpKaScore>
1.0

>  <logPScore>
1.0

>  <MPO_area>
57.81

>  <TPSA>
110.76

>  <logP>
1.83

$$$$

  Mrv1722703221715202D          

 13 13  0  0  0  0            999 V2000
    0.0000    0.0000    0.0000 O   0  0  0  0  0  0  0  0  0  0  0  0
   -0.7871    0.2582    0.0000 C   0  0  0  0  0  0  0  0  0  0  0  0
   -1.3979   -0.2833    0.0000 O   0  0  0  0  0  0  0  0  0  0  0  0
   -0.9634    1.0642    0.0000 C   0  0  0  0  0  0  0  0  0  0  0  0
   -1.7505    1.3223    0.0000 C   0  0  0  0  0  0  0  0  0  0  0  0
   -0.3652    1.6183    0.0000 C   0  0  0  0  0  0  0  0  0  0  0  0
   -2.3613    0.7808    0.0000 O   0  0  0  0  0  0  0  0  0  0  0  0
   -1.9268    2.1283    0.0000 C   0  0  0  0  0  0  0  0  0  0  0  0
   -0.5415    2.4242    0.0000 C   0  0  0  0  0  0  0  0  0  0  0  0
   -3.1484    1.0389    0.0000 C   0  0  0  0  0  0  0  0  0  0  0  0
   -1.3286    2.6824    0.0000 C   0  0  0  0  0  0  0  0  0  0  0  0
   -3.3247    1.8449    0.0000 O   0  0  0  0  0  0  0  0  0  0  0  0
   -3.7592    0.4974    0.0000 C   0  0  0  0  0  0  0  0  0  0  0  0
  1  2  2  0  0  0  0
  2  3  1  0  0  0  0
  2  4  1  0  0  0  0
  4  5  2  0  0  0  0
  4  6  1  0  0  0  0
  5  7  1  0  0  0  0
  5  8  1  0  0  0  0
  6  9  2  0  0  0  0
  7 10  1  0  0  0  0
  8 11  2  0  0  0  0
 10 12  2  0  0  0  0
 10 13  1  0  0  0  0
  9 11  1  0  0  0  0
M  END

>  <name>
Aspirin

>  <ROTATABLE_BONDCOUNT>
3

>  <HBDScore>
0.8333333333333334

>  <dipole>
4.63

>  <logD>
-2.16

>  <MPOScore>
5.833333333333333

>  <logDScore>
1.0

>  <MW>
180.159

>  <charge_dist(7.4)>
-1.00

>  <CNS>
FALSE

>  <ArRings>
1

>  <HBD>
1

>  <BALABAN_INDEX>
2.27

>  <bpKa>
-7.14

>  <TPSAScore>
1.0

>  <MWScore>
1.0

>  <bpKaScore>
1.0

>  <logPScore>
1.0

>  <MPO_area>
94.44

>  <TPSA>
63.60

>  <logP>
1.24

$$$$

  Mrv1722703221715202D          

 34 38  0  0  0  0            999 V2000
    0.0000    0.0000    0.0000 F   0  0  0  0  0  0  0  0  0  0  0  0
    0.1995    0.7980    0.0000 C   0  0  0  0  0  0  0  0  0  0  0  0
   -0.3926    1.3772    0.0000 C   0  0  0  0  0  0  0  0  0  0  0  0
    0.9847    1.0233    0.0000 C   0  0  0  0  0  0  0  0  0  0  0  0
   -0.1931    2.1753    0.0000 C   0  0  0  0  0  0  0  0  0  0  0  0
    1.1842    1.8213    0.0000 C   0  0  0  0  0  0  0  0  0  0  0  0
    0.5921    2.4005    0.0000 C   0  0  0  0  0  0  0  0  0  0  0  0
    0.7916    3.1986    0.0000 C   0  0  0  0  0  0  0  0  0  0  0  0
    0.1995    3.7778    0.0000 N   0  0  0  0  0  0  0  0  0  0  0  0
   -0.6114    3.6491    0.0000 C   0  0  0  0  0  0  0  0  0  0  0  0
    0.3154    4.5951    0.0000 C   0  0  0  0  0  0  0  0  0  0  0  0
   -0.9976    4.3828    0.0000 N   0  0  0  0  0  0  0  0  0  0  0  0
   -0.9847    2.9218    0.0000 N   0  0  0  0  0  0  0  0  0  0  0  0
   -0.4248    4.9684    0.0000 C   0  0  0  0  0  0  0  0  0  0  0  0
    0.9911    5.0521    0.0000 C   0  0  0  0  0  0  0  0  0  0  0  0
   -1.8084    2.8768    0.0000 C   0  0  0  0  0  0  0  0  0  0  0  0
   -0.4827    5.7922    0.0000 C   0  0  0  0  0  0  0  0  0  0  0  0
    0.9332    5.8758    0.0000 C   0  0  0  0  0  0  0  0  0  0  0  0
   -2.2654    3.5654    0.0000 C   0  0  0  0  0  0  0  0  0  0  0  0
   -2.1817    2.1496    0.0000 C   0  0  0  0  0  0  0  0  0  0  0  0
    0.1931    6.2491    0.0000 C   0  0  0  0  0  0  0  0  0  0  0  0
   -3.0892    3.5204    0.0000 C   0  0  0  0  0  0  0  0  0  0  0  0
   -3.0055    2.1045    0.0000 C   0  0  0  0  0  0  0  0  0  0  0  0
   -3.4624    2.7931    0.0000 N   0  0  0  0  0  0  0  0  0  0  0  0
   -4.2862    2.7481    0.0000 C   0  0  0  0  0  0  0  0  0  0  0  0
   -4.7432    3.4367    0.0000 C   0  0  0  0  0  0  0  0  0  0  0  0
   -5.5669    3.3916    0.0000 C   0  0  0  0  0  0  0  0  0  0  0  0
   -6.0239    4.0803    0.0000 C   0  0  0  0  0  0  0  0  0  0  0  0
   -5.9402    2.6644    0.0000 C   0  0  0  0  0  0  0  0  0  0  0  0
   -6.8477    4.0352    0.0000 C   0  0  0  0  0  0  0  0  0  0  0  0
   -6.7640    2.6194    0.0000 C   0  0  0  0  0  0  0  0  0  0  0  0
   -7.2210    3.3080    0.0000 C   0  0  0  0  0  0  0  0  0  0  0  0
   -8.0447    3.2630    0.0000 O   0  0  0  0  0  0  0  0  0  0  0  0
   -8.5017    3.9516    0.0000 C   0  0  0  0  0  0  0  0  0  0  0  0
  1  2  1  0  0  0  0
  2  3  2  0  0  0  0
  2  4  1  0  0  0  0
  3  5  1  0  0  0  0
  4  6  2  0  0  0  0
  5  7  2  0  0  0  0
  7  8  1  0  0  0  0
  8  9  1  0  0  0  0
  9 10  1  0  0  0  0
  9 11  1  0  0  0  0
 10 12  2  0  0  0  0
 10 13  1  0  0  0  0
 11 14  2  0  0  0  0
 11 15  1  0  0  0  0
 13 16  1  0  0  0  0
 14 17  1  0  0  0  0
 15 18  2  0  0  0  0
 16 19  1  0  0  0  0
 16 20  1  0  0  0  0
 17 21  2  0  0  0  0
 19 22  1  0  0  0  0
 20 23  1  0  0  0  0
 22 24  1  0  0  0  0
 24 25  1  0  0  0  0
 25 26  1  0  0  0  0
 26 27  1  0  0  0  0
 27 28  2  0  0  0  0
 27 29  1  0  0  0  0
 28 30  1  0  0  0  0
 29 31  2  0  0  0  0
 30 32  2  0  0  0  0
 32 33  1  0  0  0  0
 33 34  1  0  0  0  0
  6  7  1  0  0  0  0
 12 14  1  0  0  0  0
 18 21  1  0  0  0  0
 23 24  1  0  0  0  0
 31 32  1  0  0  0  0
M  END

>  <name>
Astemizole

>  <ROTATABLE_BONDCOUNT>
8

>  <HBDScore>
0.8333333333333334

>  <dipole>
5.87

>  <logD>
4.01

>  <MPOScore>
2.764183333333333

>  <logDScore>
0.0

>  <MW>
458.581

>  <charge_dist(7.4)>
1.02

>  <CNS>
FALSE

>  <ArRings>
4

>  <HBD>
1

>  <BALABAN_INDEX>
1.01

>  <bpKa>
8.73

>  <TPSAScore>
1.0

>  <MWScore>
0.29584999999999995

>  <bpKaScore>
0.6349999999999998

>  <logPScore>
0.0

>  <MPO_area>
25.84

>  <TPSA>
42.32

>  <logP>
5.39

$$$$

  Mrv1722703221715202D          

 51 53  0  0  0  0            999 V2000
    0.0000    0.0000    0.0000 O   0  0  0  0  0  0  0  0  0  0  0  0
    0.5442   -0.6146    0.0000 C   0  0  0  0  0  0  0  0  0  0  0  0
    0.2753   -1.3957    0.0000 O   0  0  0  0  0  0  0  0  0  0  0  0
    1.3509   -0.4417    0.0000 N   0  0  0  0  0  0  0  0  0  0  0  0
   -0.5442   -1.5557    0.0000 C   0  0  0  0  0  0  0  0  0  0  0  0
    1.6070    0.3521    0.0000 C   0  0  2  0  0  0  0  0  0  0  0  0
    2.4136    0.5250    0.0000 C   0  0  0  0  0  0  0  0  0  0  0  0
    1.0500    0.9795    0.0000 C   0  0  0  0  0  0  0  0  0  0  0  0
    2.6697    1.3189    0.0000 O   0  0  0  0  0  0  0  0  0  0  0  0
    2.9578   -0.0896    0.0000 N   0  0  0  0  0  0  0  0  0  0  0  0
    0.4225    0.4353    0.0000 C   0  0  0  0  0  0  0  0  0  0  0  0
    1.6646    1.5365    0.0000 C   0  0  0  0  0  0  0  0  0  0  0  0
    0.4930    1.6070    0.0000 C   0  0  0  0  0  0  0  0  0  0  0  0
    3.7644    0.0832    0.0000 N   0  0  0  0  0  0  0  0  0  0  0  0
    4.0205    0.8771    0.0000 C   0  0  0  0  0  0  0  0  0  0  0  0
    4.3086   -0.5314    0.0000 C   0  0  0  0  0  0  0  0  0  0  0  0
    4.8272    1.0500    0.0000 C   0  0  0  0  0  0  0  0  0  0  0  0
    4.0397   -1.3124    0.0000 C   0  0  2  0  0  0  0  0  0  0  0  0
    5.0833    1.8438    0.0000 C   0  0  0  0  0  0  0  0  0  0  0  0
    5.3714    0.4353    0.0000 C   0  0  0  0  0  0  0  0  0  0  0  0
    3.2203   -1.4725    0.0000 O   0  0  0  0  0  0  0  0  0  0  0  0
    4.5839   -1.9270    0.0000 C   0  0  1  0  0  0  0  0  0  0  0  0
    5.8900    2.0167    0.0000 C   0  0  0  0  0  0  0  0  0  0  0  0
    6.1781    0.6082    0.0000 C   0  0  0  0  0  0  0  0  0  0  0  0
    5.3906   -1.7542    0.0000 N   0  0  0  0  0  0  0  0  0  0  0  0
    4.3150   -2.7081    0.0000 C   0  0  0  0  0  0  0  0  0  0  0  0
    6.4342    1.4021    0.0000 C   0  0  0  0  0  0  0  0  0  0  0  0
    5.6467   -0.9603    0.0000 C   0  0  0  0  0  0  0  0  0  0  0  0
    4.8592   -3.3227    0.0000 C   0  0  0  0  0  0  0  0  0  0  0  0
    7.2408    1.5749    0.0000 C   0  0  0  0  0  0  0  0  0  0  0  0
    5.0897   -0.3329    0.0000 O   0  0  0  0  0  0  0  0  0  0  0  0
    6.4534   -0.7875    0.0000 C   0  0  1  0  0  0  0  0  0  0  0  0
    4.5903   -4.1038    0.0000 C   0  0  0  0  0  0  0  0  0  0  0  0
    5.6659   -3.1499    0.0000 C   0  0  0  0  0  0  0  0  0  0  0  0
    7.4969    2.3688    0.0000 N   0  0  0  0  0  0  0  0  0  0  0  0
    7.7850    0.9603    0.0000 C   0  0  0  0  0  0  0  0  0  0  0  0
    6.9976   -1.4021    0.0000 N   0  0  0  0  0  0  0  0  0  0  0  0
    6.7095    0.0064    0.0000 C   0  0  0  0  0  0  0  0  0  0  0  0
    5.1345   -4.7184    0.0000 C   0  0  0  0  0  0  0  0  0  0  0  0
    6.2101   -3.7644    0.0000 C   0  0  0  0  0  0  0  0  0  0  0  0
    8.3036    2.5416    0.0000 C   0  0  0  0  0  0  0  0  0  0  0  0
    8.5917    1.1332    0.0000 C   0  0  0  0  0  0  0  0  0  0  0  0
    7.8042   -1.2292    0.0000 C   0  0  0  0  0  0  0  0  0  0  0  0
    7.4905   -0.2497    0.0000 C   0  0  0  0  0  0  0  0  0  0  0  0
    5.9156    0.2753    0.0000 C   0  0  0  0  0  0  0  0  0  0  0  0
    6.9655    0.8003    0.0000 C   0  0  0  0  0  0  0  0  0  0  0  0
    5.9412   -4.5455    0.0000 C   0  0  0  0  0  0  0  0  0  0  0  0
    8.8478    1.9270    0.0000 C   0  0  0  0  0  0  0  0  0  0  0  0
    8.0603   -0.4353    0.0000 O   0  0  0  0  0  0  0  0  0  0  0  0
    8.3484   -1.8438    0.0000 O   0  0  0  0  0  0  0  0  0  0  0  0
    9.1550   -1.6710    0.0000 C   0  0  0  0  0  0  0  0  0  0  0  0
  1  2  2  0  0  0  0
  2  3  1  0  0  0  0
  2  4  1  0  0  0  0
  3  5  1  0  0  0  0
  6  4  1  1  0  0  0
  6  7  1  0  0  0  0
  6  8  1  0  0  0  0
  7  9  2  0  0  0  0
  7 10  1  0  0  0  0
  8 11  1  0  0  0  0
  8 12  1  0  0  0  0
  8 13  1  0  0  0  0
 10 14  1  0  0  0  0
 14 15  1  0  0  0  0
 14 16  1  0  0  0  0
 15 17  1  0  0  0  0
 16 18  1  0  0  0  0
 17 19  2  0  0  0  0
 17 20  1  0  0  0  0
 18 21  1  1  0  0  0
 18 22  1  0  0  0  0
 19 23  1  0  0  0  0
 20 24  2  0  0  0  0
 22 25  1  1  0  0  0
 22 26  1  0  0  0  0
 23 27  2  0  0  0  0
 25 28  1  0  0  0  0
 26 29  1  0  0  0  0
 27 30  1  0  0  0  0
 28 31  2  0  0  0  0
 28 32  1  0  0  0  0
 29 33  2  0  0  0  0
 29 34  1  0  0  0  0
 30 35  2  0  0  0  0
 30 36  1  0  0  0  0
 32 37  1  6  0  0  0
 32 38  1  0  0  0  0
 33 39  1  0  0  0  0
 34 40  2  0  0  0  0
 35 41  1  0  0  0  0
 36 42  2  0  0  0  0
 37 43  1  0  0  0  0
 38 44  1  0  0  0  0
 38 45  1  0  0  0  0
 38 46  1  0  0  0  0
 39 47  2  0  0  0  0
 41 48  2  0  0  0  0
 43 49  2  0  0  0  0
 43 50  1  0  0  0  0
 50 51  1  0  0  0  0
 24 27  1  0  0  0  0
 40 47  1  0  0  0  0
 42 48  1  0  0  0  0
M  END

>  <name>
Atazanavir

>  <ROTATABLE_BONDCOUNT>
18

>  <HBDScore>
0.0

>  <dipole>
4.17

>  <logD>
4.54

>  <MPOScore>
1.23

>  <logDScore>
0.0

>  <MW>
704.869

>  <charge_dist(7.4)>
0.00

>  <CNS>
FALSE

>  <ArRings>
3

>  <HBD>
5

>  <BALABAN_INDEX>
1.79

>  <bpKa>
4.42

>  <TPSAScore>
0.0

>  <MWScore>
0.0

>  <bpKaScore>
1.0

>  <logPScore>
0.22999999999999998

>  <MPO_area>
3.83

>  <TPSA>
171.22

>  <logP>
4.54

$$$$

  Mrv1722703221715202D          

 19 19  0  0  0  0            999 V2000
    0.0000    0.0000    0.0000 O   0  0  0  0  0  0  0  0  0  0  0  0
   -0.1227   -0.8136    0.0000 C   0  0  0  0  0  0  0  0  0  0  0  0
   -0.8975   -1.1171    0.0000 N   0  0  0  0  0  0  0  0  0  0  0  0
    0.5230   -1.3172    0.0000 C   0  0  0  0  0  0  0  0  0  0  0  0
    1.2849   -1.0008    0.0000 C   0  0  0  0  0  0  0  0  0  0  0  0
    1.3947   -0.1743    0.0000 C   0  0  0  0  0  0  0  0  0  0  0  0
    1.9307   -1.5045    0.0000 C   0  0  0  0  0  0  0  0  0  0  0  0
    2.1567    0.1421    0.0000 C   0  0  0  0  0  0  0  0  0  0  0  0
    2.6926   -1.1881    0.0000 C   0  0  0  0  0  0  0  0  0  0  0  0
    2.8023   -0.3616    0.0000 C   0  0  0  0  0  0  0  0  0  0  0  0
    3.5642   -0.0452    0.0000 O   0  0  0  0  0  0  0  0  0  0  0  0
    4.2100   -0.5489    0.0000 C   0  0  0  0  0  0  0  0  0  0  0  0
    4.9719   -0.2324    0.0000 C   0  0  1  0  0  0  0  0  0  0  0  0
    5.0817    0.5940    0.0000 O   0  0  0  0  0  0  0  0  0  0  0  0
    5.6176   -0.7361    0.0000 C   0  0  0  0  0  0  0  0  0  0  0  0
    6.3795   -0.4197    0.0000 N   0  0  0  0  0  0  0  0  0  0  0  0
    7.0252   -0.9233    0.0000 C   0  0  0  0  0  0  0  0  0  0  0  0
    7.7871   -0.6070    0.0000 C   0  0  0  0  0  0  0  0  0  0  0  0
    6.9025   -1.7369    0.0000 C   0  0  0  0  0  0  0  0  0  0  0  0
  1  2  2  0  0  0  0
  2  3  1  0  0  0  0
  2  4  1  0  0  0  0
  4  5  1  0  0  0  0
  5  6  2  0  0  0  0
  5  7  1  0  0  0  0
  6  8  1  0  0  0  0
  7  9  2  0  0  0  0
  8 10  2  0  0  0  0
 10 11  1  0  0  0  0
 11 12  1  0  0  0  0
 12 13  1  0  0  0  0
 13 14  1  1  0  0  0
 13 15  1  0  0  0  0
 15 16  1  0  0  0  0
 16 17  1  0  0  0  0
 17 18  1  0  0  0  0
 17 19  1  0  0  0  0
  9 10  1  0  0  0  0
M  END

>  <name>
Atenolol

>  <ROTATABLE_BONDCOUNT>
8

>  <HBDScore>
0.16666666666666674

>  <dipole>
3.99

>  <logD>
-1.80

>  <MPOScore>
4.331666666666667

>  <logDScore>
1.0

>  <MW>
266.341

>  <charge_dist(7.4)>
0.99

>  <CNS>
FALSE

>  <ArRings>
1

>  <HBD>
3

>  <BALABAN_INDEX>
1.98

>  <bpKa>
9.67

>  <TPSAScore>
1.0

>  <MWScore>
1.0

>  <bpKaScore>
0.16500000000000004

>  <logPScore>
1.0

>  <MPO_area>
55.99

>  <TPSA>
84.58

>  <logP>
0.43

$$$$

  Mrv1722703221715202D          

 41 44  0  0  0  0            999 V2000
    0.0000    0.0000    0.0000 F   0  0  0  0  0  0  0  0  0  0  0  0
    0.1171   -0.8131    0.0000 C   0  0  0  0  0  0  0  0  0  0  0  0
    0.8781   -1.1058    0.0000 C   0  0  0  0  0  0  0  0  0  0  0  0
   -0.5334   -1.3204    0.0000 C   0  0  0  0  0  0  0  0  0  0  0  0
    0.9952   -1.9189    0.0000 C   0  0  0  0  0  0  0  0  0  0  0  0
   -0.4163   -2.1335    0.0000 C   0  0  0  0  0  0  0  0  0  0  0  0
    0.3447   -2.4263    0.0000 C   0  0  0  0  0  0  0  0  0  0  0  0
    0.4618   -3.2394    0.0000 C   0  0  0  0  0  0  0  0  0  0  0  0
   -0.1366   -3.8118    0.0000 N   0  0  0  0  0  0  0  0  0  0  0  0
    1.1904   -3.6166    0.0000 C   0  0  0  0  0  0  0  0  0  0  0  0
    0.2277   -4.5468    0.0000 C   0  0  0  0  0  0  0  0  0  0  0  0
   -0.9562   -3.6687    0.0000 C   0  0  0  0  0  0  0  0  0  0  0  0
    1.9254   -3.2394    0.0000 C   0  0  0  0  0  0  0  0  0  0  0  0
    1.0473   -4.4232    0.0000 C   0  0  0  0  0  0  0  0  0  0  0  0
   -0.1626   -5.2753    0.0000 C   0  0  0  0  0  0  0  0  0  0  0  0
   -1.4896   -4.2996    0.0000 C   0  0  0  0  0  0  0  0  0  0  0  0
    2.6084   -3.6881    0.0000 C   0  0  0  0  0  0  0  0  0  0  0  0
    1.9709   -2.4067    0.0000 C   0  0  0  0  0  0  0  0  0  0  0  0
    1.6197   -5.0086    0.0000 C   0  0  0  0  0  0  0  0  0  0  0  0
    0.2732   -5.9648    0.0000 C   0  0  0  0  0  0  0  0  0  0  0  0
   -0.9952   -5.3078    0.0000 C   0  0  0  0  0  0  0  0  0  0  0  0
   -2.3092   -4.1565    0.0000 C   0  0  2  0  0  0  0  0  0  0  0  0
    3.3434   -3.3109    0.0000 C   0  0  0  0  0  0  0  0  0  0  0  0
    2.7059   -2.0295    0.0000 C   0  0  0  0  0  0  0  0  0  0  0  0
    1.3920   -5.8022    0.0000 O   0  0  0  0  0  0  0  0  0  0  0  0
    2.4132   -4.7940    0.0000 N   0  0  0  0  0  0  0  0  0  0  0  0
   -2.6084   -3.3759    0.0000 O   0  0  0  0  0  0  0  0  0  0  0  0
   -2.8425   -4.7874    0.0000 C   0  0  0  0  0  0  0  0  0  0  0  0
    3.3889   -2.4783    0.0000 C   0  0  0  0  0  0  0  0  0  0  0  0
    2.9856   -5.3794    0.0000 C   0  0  0  0  0  0  0  0  0  0  0  0
   -3.6621   -4.6443    0.0000 C   0  0  2  0  0  0  0  0  0  0  0  0
    2.7580   -6.1730    0.0000 C   0  0  0  0  0  0  0  0  0  0  0  0
    3.7792   -5.1647    0.0000 C   0  0  0  0  0  0  0  0  0  0  0  0
   -3.9614   -3.8638    0.0000 O   0  0  0  0  0  0  0  0  0  0  0  0
   -4.1955   -5.2753    0.0000 C   0  0  0  0  0  0  0  0  0  0  0  0
    3.3304   -6.7584    0.0000 C   0  0  0  0  0  0  0  0  0  0  0  0
    4.3516   -5.7502    0.0000 C   0  0  0  0  0  0  0  0  0  0  0  0
   -5.0151   -5.1322    0.0000 C   0  0  0  0  0  0  0  0  0  0  0  0
    4.1240   -6.5437    0.0000 C   0  0  0  0  0  0  0  0  0  0  0  0
   -5.3144   -4.3516    0.0000 O   0  0  0  0  0  0  0  0  0  0  0  0
   -5.5485   -5.7631    0.0000 O   0  0  0  0  0  0  0  0  0  0  0  0
  1  2  1  0  0  0  0
  2  3  2  0  0  0  0
  2  4  1  0  0  0  0
  3  5  1  0  0  0  0
  4  6  2  0  0  0  0
  5  7  2  0  0  0  0
  7  8  1  0  0  0  0
  8  9  1  0  0  0  0
  8 10  2  0  0  0  0
  9 11  1  0  0  0  0
  9 12  1  0  0  0  0
 10 13  1  0  0  0  0
 10 14  1  0  0  0  0
 11 15  1  0  0  0  0
 12 16  1  0  0  0  0
 13 17  2  0  0  0  0
 13 18  1  0  0  0  0
 14 19  1  0  0  0  0
 15 20  1  0  0  0  0
 15 21  1  0  0  0  0
 16 22  1  0  0  0  0
 17 23  1  0  0  0  0
 18 24  2  0  0  0  0
 19 25  2  0  0  0  0
 19 26  1  0  0  0  0
 22 27  1  1  0  0  0
 22 28  1  0  0  0  0
 23 29  2  0  0  0  0
 26 30  1  0  0  0  0
 28 31  1  0  0  0  0
 30 32  2  0  0  0  0
 30 33  1  0  0  0  0
 31 34  1  1  0  0  0
 31 35  1  0  0  0  0
 32 36  1  0  0  0  0
 33 37  2  0  0  0  0
 35 38  1  0  0  0  0
 36 39  2  0  0  0  0
 38 40  2  0  0  0  0
 38 41  1  0  0  0  0
  6  7  1  0  0  0  0
 11 14  2  0  0  0  0
 24 29  1  0  0  0  0
 37 39  1  0  0  0  0
M  END

>  <name>
Atorvastatin

>  <ROTATABLE_BONDCOUNT>
12

>  <HBDScore>
0.0

>  <dipole>
6.54

>  <logD>
2.43

>  <MPOScore>
2.0586666666666664

>  <logDScore>
0.7849999999999999

>  <MW>
558.650

>  <charge_dist(7.4)>
-1.00

>  <CNS>
FALSE

>  <ArRings>
4

>  <HBD>
4

>  <BALABAN_INDEX>
1.47

>  <bpKa>
-2.74

>  <TPSAScore>
0.2736666666666665

>  <MWScore>
0.0

>  <bpKaScore>
1.0

>  <logPScore>
0.0

>  <MPO_area>
16.66

>  <TPSA>
111.79

>  <logP>
5.39

$$$$

  Mrv1722703221715202D          

 26 29  0  0  1  0            999 V2000
    0.0000    0.0000    0.0000 Cl  0  0  0  0  0  0  0  0  0  0  0  0
    0.8244   -0.0327    0.0000 C   0  0  0  0  0  0  0  0  0  0  0  0
    1.2693    0.6739    0.0000 C   0  0  0  0  0  0  0  0  0  0  0  0
    1.1973   -0.7655    0.0000 C   0  0  0  0  0  0  0  0  0  0  0  0
    2.0936    0.6411    0.0000 C   0  0  0  0  0  0  0  0  0  0  0  0
    2.0217   -0.7982    0.0000 C   0  0  0  0  0  0  0  0  0  0  0  0
    2.4665   -0.0916    0.0000 C   0  0  0  0  0  0  0  0  0  0  0  0
    3.2909   -0.1243    0.0000 C   0  0  1  0  0  0  0  0  0  0  0  0
    3.7358    0.5823    0.0000 C   0  0  0  0  0  0  0  0  0  0  0  0
    3.6639   -0.8571    0.0000 C   0  0  0  0  0  0  0  0  0  0  0  0
    4.5602    0.5496    0.0000 C   0  0  0  0  0  0  0  0  0  0  0  0
    4.4882   -0.8898    0.0000 C   0  0  0  0  0  0  0  0  0  0  0  0
    4.9331   -0.1832    0.0000 C   0  0  1  0  0  0  0  0  0  0  0  0
    5.7575   -0.2159    0.0000 C   0  0  0  0  0  0  0  0  0  0  0  0
    6.1304   -0.9487    0.0000 C   0  0  0  0  0  0  0  0  0  0  0  0
    6.2024    0.4907    0.0000 C   0  0  0  0  0  0  0  0  0  0  0  0
    5.6725   -1.6422    0.0000 O   0  0  0  0  0  0  0  0  0  0  0  0
    6.9548   -0.9814    0.0000 C   0  0  0  0  0  0  0  0  0  0  0  0
    5.8164    1.2366    0.0000 O   0  0  0  0  0  0  0  0  0  0  0  0
    7.0268    0.4580    0.0000 C   0  0  0  0  0  0  0  0  0  0  0  0
    7.3277   -1.7141    0.0000 O   0  0  0  0  0  0  0  0  0  0  0  0
    7.3997   -0.2748    0.0000 C   0  0  0  0  0  0  0  0  0  0  0  0
    7.4717    1.1646    0.0000 C   0  0  0  0  0  0  0  0  0  0  0  0
    8.2241   -0.3075    0.0000 C   0  0  0  0  0  0  0  0  0  0  0  0
    8.2960    1.1319    0.0000 C   0  0  0  0  0  0  0  0  0  0  0  0
    8.6690    0.3991    0.0000 C   0  0  0  0  0  0  0  0  0  0  0  0
  1  2  1  0  0  0  0
  2  3  2  0  0  0  0
  2  4  1  0  0  0  0
  3  5  1  0  0  0  0
  4  6  2  0  0  0  0
  5  7  2  0  0  0  0
  8  7  1  1  0  0  0
  8  9  1  0  0  0  0
  8 10  1  0  0  0  0
  9 11  1  0  0  0  0
 10 12  1  0  0  0  0
 11 13  1  0  0  0  0
 13 14  1  6  0  0  0
 14 15  2  0  0  0  0
 14 16  1  0  0  0  0
 15 17  1  0  0  0  0
 15 18  1  0  0  0  0
 16 19  2  0  0  0  0
 16 20  1  0  0  0  0
 18 21  2  0  0  0  0
 18 22  1  0  0  0  0
 20 23  2  0  0  0  0
 22 24  2  0  0  0  0
 23 25  1  0  0  0  0
 24 26  1  0  0  0  0
  6  7  1  0  0  0  0
 12 13  1  0  0  0  0
 20 22  1  0  0  0  0
 25 26  2  0  0  0  0
M  END

>  <name>
Atovaquone

>  <ROTATABLE_BONDCOUNT>
2

>  <HBDScore>
0.8333333333333334

>  <dipole>
5.29

>  <logD>
3.33

>  <MPOScore>
4.11947619047619

>  <logDScore>
0.33499999999999996

>  <MW>
366.84

>  <charge_dist(7.4)>
-0.98

>  <CNS>
FALSE

>  <ArRings>
2

>  <HBD>
1

>  <BALABAN_INDEX>
1.18

>  <bpKa>
-5.22

>  <TPSAScore>
1.0

>  <MWScore>
0.9511428571428573

>  <bpKaScore>
1.0

>  <logPScore>
0.0

>  <MPO_area>
50.38

>  <TPSA>
54.37

>  <logP>
5.00

$$$$

  Mrv1722703221715202D          

 34 37  0  0  0  0            999 V2000
    0.0000    0.0000    0.0000 Cl  0  0  0  0  0  0  0  0  0  0  0  0
    0.0195    0.8293    0.0000 C   0  0  0  0  0  0  0  0  0  0  0  0
   -0.6867    1.2698    0.0000 C   0  0  0  0  0  0  0  0  0  0  0  0
    0.7385    1.2244    0.0000 C   0  0  0  0  0  0  0  0  0  0  0  0
   -1.4188    0.8876    0.0000 O   0  0  0  0  0  0  0  0  0  0  0  0
   -0.6673    2.0990    0.0000 C   0  0  0  0  0  0  0  0  0  0  0  0
    0.7580    2.0537    0.0000 C   0  0  0  0  0  0  0  0  0  0  0  0
   -2.1249    1.3281    0.0000 C   0  0  0  0  0  0  0  0  0  0  0  0
    0.0518    2.4942    0.0000 C   0  0  0  0  0  0  0  0  0  0  0  0
    1.4771    2.4489    0.0000 C   0  0  0  0  0  0  0  0  0  0  0  0
    2.1703    2.0213    0.0000 N   0  0  0  0  0  0  0  0  0  0  0  0
    2.8894    2.4164    0.0000 C   0  0  0  0  0  0  0  0  0  0  0  0
    3.5826    1.9889    0.0000 N   0  0  0  0  0  0  0  0  0  0  0  0
    2.9088    3.2457    0.0000 C   0  0  0  0  0  0  0  0  0  0  0  0
    4.3017    2.3841    0.0000 C   0  0  0  0  0  0  0  0  0  0  0  0
    2.2027    3.6863    0.0000 C   0  0  0  0  0  0  0  0  0  0  0  0
    3.6280    3.6409    0.0000 C   0  0  0  0  0  0  0  0  0  0  0  0
    4.3212    3.2133    0.0000 N   0  0  0  0  0  0  0  0  0  0  0  0
    4.9949    1.9565    0.0000 N   0  0  0  0  0  0  0  0  0  0  0  0
    1.4706    3.3040    0.0000 O   0  0  0  0  0  0  0  0  0  0  0  0
    2.2221    4.5155    0.0000 N   0  0  0  0  0  0  0  0  0  0  0  0
    5.7529    2.2739    0.0000 C   0  0  2  0  0  0  0  0  0  0  0  0
    5.0532    1.1402    0.0000 C   0  0  0  0  0  0  0  0  0  0  0  0
    1.5160    4.9560    0.0000 C   0  0  0  0  0  0  0  0  0  0  0  0
    6.2776    1.6520    0.0000 C   0  0  0  0  0  0  0  0  0  0  0  0
    5.9408    3.0773    0.0000 C   0  0  0  0  0  0  0  0  0  0  0  0
    5.8436    0.9524    0.0000 C   0  0  0  0  0  0  0  0  0  0  0  0
    1.5354    5.7852    0.0000 C   0  0  0  0  0  0  0  0  0  0  0  0
    6.7246    3.3170    0.0000 O   0  0  0  0  0  0  0  0  0  0  0  0
    2.2545    6.1805    0.0000 N   0  0  0  0  0  0  0  0  0  0  0  0
    0.8293    6.2258    0.0000 N   0  0  0  0  0  0  0  0  0  0  0  0
    2.2739    7.0097    0.0000 C   0  0  0  0  0  0  0  0  0  0  0  0
    0.8487    7.0550    0.0000 C   0  0  0  0  0  0  0  0  0  0  0  0
    1.5678    7.4502    0.0000 C   0  0  0  0  0  0  0  0  0  0  0  0
  1  2  1  0  0  0  0
  2  3  2  0  0  0  0
  2  4  1  0  0  0  0
  3  5  1  0  0  0  0
  3  6  1  0  0  0  0
  4  7  2  0  0  0  0
  5  8  1  0  0  0  0
  6  9  2  0  0  0  0
  7 10  1  0  0  0  0
 10 11  1  0  0  0  0
 11 12  1  0  0  0  0
 12 13  2  0  0  0  0
 12 14  1  0  0  0  0
 13 15  1  0  0  0  0
 14 16  1  0  0  0  0
 14 17  2  0  0  0  0
 15 18  2  0  0  0  0
 15 19  1  0  0  0  0
 16 20  2  0  0  0  0
 16 21  1  0  0  0  0
 19 22  1  0  0  0  0
 19 23  1  0  0  0  0
 21 24  1  0  0  0  0
 22 25  1  0  0  0  0
 22 26  1  1  0  0  0
 23 27  1  0  0  0  0
 24 28  1  0  0  0  0
 26 29  1  0  0  0  0
 28 30  2  0  0  0  0
 28 31  1  0  0  0  0
 30 32  1  0  0  0  0
 31 33  2  0  0  0  0
 32 34  2  0  0  0  0
  7  9  1  0  0  0  0
 17 18  1  0  0  0  0
 25 27  1  0  0  0  0
 33 34  1  0  0  0  0
M  END

>  <name>
Avanafil

>  <ROTATABLE_BONDCOUNT>
9

>  <HBDScore>
0.16666666666666674

>  <dipole>
3.75

>  <logD>
2.77

>  <MPOScore>
2.896238095238096

>  <logDScore>
0.615

>  <MW>
483.96

>  <charge_dist(7.4)>
0.01

>  <CNS>
FALSE

>  <ArRings>
3

>  <HBD>
3

>  <BALABAN_INDEX>
1.27

>  <bpKa>
5.54

>  <TPSAScore>
0.0

>  <MWScore>
0.11457142857142877

>  <bpKaScore>
1.0

>  <logPScore>
1.0

>  <MPO_area>
28.94

>  <TPSA>
125.39

>  <logP>
2.78

$$$$

  Mrv1722703221715202D          

 19 21  0  0  0  0            999 V2000
    0.0000    0.0000    0.0000 S   0  0  0  0  0  0  0  0  0  0  0  0
   -0.7369    0.3814    0.0000 C   0  0  0  0  0  0  0  0  0  0  0  0
    0.6852    0.4525    0.0000 C   0  0  0  0  0  0  0  0  0  0  0  0
   -0.7887    1.2088    0.0000 N   0  0  0  0  0  0  0  0  0  0  0  0
   -1.4351   -0.0582    0.0000 C   0  0  0  0  0  0  0  0  0  0  0  0
    0.7240    1.2800    0.0000 N   0  0  0  0  0  0  0  0  0  0  0  0
    1.4481    0.1616    0.0000 C   0  0  0  0  0  0  0  0  0  0  0  0
   -1.5256    1.5902    0.0000 C   0  0  0  0  0  0  0  0  0  0  0  0
   -1.5709   -0.8663    0.0000 N   0  0  0  0  0  2  0  0  0  0  0  0
   -2.1720    0.3232    0.0000 C   0  0  0  0  0  0  0  0  0  0  0  0
    1.5127    1.4998    0.0000 C   0  0  0  0  0  0  0  0  0  0  0  0
    0.0776    1.8036    0.0000 C   0  0  0  0  0  0  0  0  0  0  0  0
    1.6549   -0.6270    0.0000 N   0  3  0  0  0  0  0  0  0  0  0  0
    1.9588    0.8081    0.0000 N   0  0  0  0  0  0  0  0  0  0  0  0
   -2.2238    1.1507    0.0000 N   0  0  0  0  0  0  0  0  0  0  0  0
   -2.3919   -0.9891    0.0000 C   0  0  0  0  0  0  0  0  0  0  0  0
   -2.7603   -0.2521    0.0000 N   0  0  0  0  0  0  0  0  0  0  0  0
    1.0666   -1.2024    0.0000 O   0  0  0  0  0  0  0  0  0  0  0  0
    2.4436   -0.8339    0.0000 O   0  5  0  0  0  0  0  0  0  0  0  0
  1  2  1  0  0  0  0
  1  3  1  0  0  0  0
  2  4  2  0  0  0  0
  2  5  1  0  0  0  0
  3  6  1  0  0  0  0
  3  7  2  0  0  0  0
  4  8  1  0  0  0  0
  5  9  1  0  0  0  0
  5 10  2  0  0  0  0
  6 11  1  0  0  0  0
  6 12  1  0  0  0  0
  7 13  1  0  0  0  0
  7 14  1  0  0  0  0
  8 15  2  0  0  0  0
  9 16  1  0  0  0  0
 10 17  1  0  0  0  0
 13 18  2  0  0  0  0
 13 19  1  0  0  0  0
 10 15  1  0  0  0  0
 11 14  2  0  0  0  0
 16 17  2  0  0  0  0
M  CHG  2  13   1  19  -1
M  RAD  1   9   2
M  END

>  <name>
Azathioprine

>  <ROTATABLE_BONDCOUNT>
3

>  <HBDScore>
1.0

>  <logD>
1.40

>  <MPOScore>
5.249333333333333

>  <logDScore>
1.0

>  <MW>
276.25

>  <charge_dist(7.4)>
0.00

>  <CNS>
FALSE

>  <ArRings>
3

>  <HBD>
0

>  <BALABAN_INDEX>
1.58

>  <bpKa>
-0.25

>  <TPSAScore>
0.24933333333333352

>  <MWScore>
1.0

>  <bpKaScore>
1.0

>  <logPScore>
1.0

>  <MPO_area>
74.98

>  <TPSA>
112.52

>  <logP>
1.40

$$$$

  Mrv1722703221715202D          

 42 47  0  0  0  0            999 V2000
    0.0000    0.0000    0.0000 O   0  0  0  0  0  0  0  0  0  0  0  0
   -0.8228   -0.1037    0.0000 C   0  0  0  0  0  0  0  0  0  0  0  0
   -1.3993    0.4988    0.0000 O   0  0  0  0  0  0  0  0  0  0  0  0
   -1.2179   -0.8228    0.0000 O   0  0  0  0  0  0  0  0  0  0  0  0
   -2.1443    0.1490    0.0000 C   0  0  0  0  0  0  0  0  0  0  0  0
   -2.0342   -0.6673    0.0000 C   0  0  0  0  0  0  0  0  0  0  0  0
   -2.8763    0.5442    0.0000 C   0  0  0  0  0  0  0  0  0  0  0  0
   -2.6367   -1.2309    0.0000 C   0  0  0  0  0  0  0  0  0  0  0  0
   -2.9087    1.3734    0.0000 O   0  0  0  0  0  0  0  0  0  0  0  0
   -3.6408    1.7686    0.0000 C   0  0  0  0  0  0  0  0  0  0  0  0
   -4.3469    1.3410    0.0000 O   0  0  0  0  0  0  0  0  0  0  0  0
   -3.6732    2.5978    0.0000 C   0  0  0  0  0  0  0  0  0  0  0  0
   -4.4052    2.9930    0.0000 C   0  0  0  0  0  0  0  0  0  0  0  0
   -2.9800    3.0383    0.0000 C   0  0  0  0  0  0  0  0  0  0  0  0
   -5.1891    2.7208    0.0000 N   0  0  0  0  0  0  0  0  0  0  0  0
   -4.4376    3.8222    0.0000 C   0  0  0  0  0  0  0  0  0  0  0  0
   -3.0124    3.8675    0.0000 C   0  0  0  0  0  0  0  0  0  0  0  0
   -5.7009    3.3752    0.0000 C   0  0  0  0  0  0  0  0  0  0  0  0
   -5.4288    1.9370    0.0000 C   0  0  0  0  0  0  0  0  0  0  0  0
   -5.2344    4.0618    0.0000 N   0  0  0  0  0  0  0  0  0  0  0  0
   -3.7444    4.2627    0.0000 C   0  0  0  0  0  0  0  0  0  0  0  0
   -6.5301    3.3557    0.0000 O   0  0  0  0  0  0  0  0  0  0  0  0
   -6.2321    1.7491    0.0000 C   0  0  0  0  0  0  0  0  0  0  0  0
   -6.9706    4.0618    0.0000 C   0  0  0  0  0  0  0  0  0  0  0  0
   -6.8086    2.3516    0.0000 C   0  0  0  0  0  0  0  0  0  0  0  0
   -6.4718    0.9653    0.0000 C   0  0  0  0  0  0  0  0  0  0  0  0
   -7.7998    4.0424    0.0000 C   0  0  0  0  0  0  0  0  0  0  0  0
   -7.6119    2.1637    0.0000 C   0  0  0  0  0  0  0  0  0  0  0  0
   -7.2751    0.7774    0.0000 C   0  0  0  0  0  0  0  0  0  0  0  0
   -7.8516    1.3799    0.0000 C   0  0  0  0  0  0  0  0  0  0  0  0
   -8.6549    1.1920    0.0000 C   0  0  0  0  0  0  0  0  0  0  0  0
   -8.8946    0.4081    0.0000 C   0  0  0  0  0  0  0  0  0  0  0  0
   -9.2315    1.7945    0.0000 C   0  0  0  0  0  0  0  0  0  0  0  0
   -8.3310   -0.1814    0.0000 C   0  0  0  0  0  0  0  0  0  0  0  0
   -9.6979    0.2202    0.0000 C   0  0  0  0  0  0  0  0  0  0  0  0
  -10.0348    1.6066    0.0000 C   0  0  0  0  0  0  0  0  0  0  0  0
   -7.5213   -0.0648    0.0000 N   0  0  0  0  0  0  0  0  0  0  0  0
   -8.4865   -0.9847    0.0000 N   0  0  0  0  0  0  0  0  0  0  0  0
  -10.2745    0.8228    0.0000 C   0  0  0  0  0  0  0  0  0  0  0  0
   -7.1714   -0.7968    0.0000 C   0  0  0  0  0  0  0  0  0  0  0  0
   -7.7674   -1.3669    0.0000 O   0  0  0  0  0  0  0  0  0  0  0  0
   -6.3681   -0.9393    0.0000 O   0  0  0  0  0  0  0  0  0  0  0  0
  1  2  2  0  0  0  0
  2  3  1  0  0  0  0
  2  4  1  0  0  0  0
  3  5  1  0  0  0  0
  4  6  1  0  0  0  0
  5  7  1  0  0  0  0
  6  8  1  0  0  0  0
  7  9  1  0  0  0  0
  9 10  1  0  0  0  0
 10 11  2  0  0  0  0
 10 12  1  0  0  0  0
 12 13  2  0  0  0  0
 12 14  1  0  0  0  0
 13 15  1  0  0  0  0
 13 16  1  0  0  0  0
 14 17  2  0  0  0  0
 15 18  1  0  0  0  0
 15 19  1  0  0  0  0
 16 20  1  0  0  0  0
 16 21  2  0  0  0  0
 18 22  1  0  0  0  0
 19 23  1  0  0  0  0
 22 24  1  0  0  0  0
 23 25  2  0  0  0  0
 23 26  1  0  0  0  0
 24 27  1  0  0  0  0
 25 28  1  0  0  0  0
 26 29  2  0  0  0  0
 28 30  2  0  0  0  0
 30 31  1  0  0  0  0
 31 32  2  0  0  0  0
 31 33  1  0  0  0  0
 32 34  1  0  0  0  0
 32 35  1  0  0  0  0
 33 36  2  0  0  0  0
 34 37  2  0  0  0  0
 34 38  1  0  0  0  0
 35 39  2  0  0  0  0
 37 40  1  0  0  0  0
 38 41  1  0  0  0  0
 40 42  2  0  0  0  0
  5  6  2  0  0  0  0
 17 21  1  0  0  0  0
 18 20  2  0  0  0  0
 29 30  1  0  0  0  0
 36 39  1  0  0  0  0
 40 41  1  0  0  0  0
M  END

>  <name>
Azilsartan

>  <ROTATABLE_BONDCOUNT>
10

>  <HBDScore>
0.8333333333333334

>  <dipole>
10.42

>  <logD>
4.74

>  <MPOScore>
1.8333333333333335

>  <logDScore>
0.0

>  <MW>
568.542

>  <charge_dist(7.4)>
-0.97

>  <CNS>
FALSE

>  <ArRings>
6

>  <HBD>
1

>  <BALABAN_INDEX>
0.95

>  <bpKa>
1.48

>  <TPSAScore>
0.0

>  <MWScore>
0.0

>  <bpKaScore>
1.0

>  <logPScore>
0.0

>  <MPO_area>
13.89

>  <TPSA>
139.57

>  <logP>
5.70

$$$$

  Mrv1722703221715202D          

 52 54  0  0  0  0            999 V2000
    0.0000    0.0000    0.0000 O   0  0  0  0  0  0  0  0  0  0  0  0
    0.8069    0.1497    0.0000 C   0  0  0  0  0  0  0  0  0  0  0  0
    0.8264    0.9826    0.0000 O   0  0  0  0  0  0  0  0  0  0  0  0
    1.1128   -0.6117    0.0000 C   0  0  2  0  0  0  0  0  0  0  0  0
    1.1843    1.7309    0.0000 C   0  0  2  0  0  0  0  0  0  0  0  0
    1.7049   -1.1778    0.0000 C   0  0  2  0  0  0  0  0  0  0  0  0
    0.4100   -0.8589    0.0000 C   0  0  0  0  0  0  0  0  0  0  0  0
    1.8091    2.2710    0.0000 C   0  0  2  0  0  0  0  0  0  0  0  0
    0.5271    2.2450    0.0000 C   0  0  0  0  0  0  0  0  0  0  0  0
    1.2624   -1.8741    0.0000 O   0  0  0  0  0  0  0  0  0  0  0  0
    2.4728   -1.4511    0.0000 C   0  0  2  0  0  0  0  0  0  0  0  0
    1.8871    3.0975    0.0000 O   0  0  0  0  0  0  0  0  0  0  0  0
    2.5964    2.5053    0.0000 C   0  0  1  0  0  0  0  0  0  0  0  0
    1.0737    2.6615    0.0000 C   0  0  0  0  0  0  0  0  0  0  0  0
    0.6312    3.0714    0.0000 C   0  0  0  0  0  0  0  0  0  0  0  0
    0.4295   -1.8416    0.0000 C   0  0  1  0  0  0  0  0  0  0  0  0
    3.2927   -1.3861    0.0000 C   0  0  2  0  0  0  0  0  0  0  0  0
    2.3557   -2.2646    0.0000 C   0  0  0  0  0  0  0  0  0  0  0  0
    2.5313    3.3382    0.0000 O   0  0  0  0  0  0  0  0  0  0  0  0
    3.4098    2.4012    0.0000 C   0  0  1  0  0  0  0  0  0  0  0  0
    0.0326   -1.1062    0.0000 O   0  0  0  0  0  0  0  0  0  0  0  0
   -0.0130   -2.5379    0.0000 C   0  0  0  0  0  0  0  0  0  0  0  0
    3.5139   -2.1735    0.0000 O   0  0  0  0  0  0  0  0  0  0  0  0
    4.0150   -0.9891    0.0000 C   0  0  1  0  0  0  0  0  0  0  0  0
    4.1061    1.9717    0.0000 N   0  0  0  0  0  0  0  0  0  0  0  0
    3.6831    3.1820    0.0000 C   0  0  0  0  0  0  0  0  0  0  0  0
   -0.8004   -1.0737    0.0000 C   0  0  1  0  0  0  0  0  0  0  0  0
   -0.8459   -2.5053    0.0000 C   0  0  1  0  0  0  0  0  0  0  0  0
    4.3078   -2.3687    0.0000 C   0  0  1  0  0  0  0  0  0  0  0  0
    4.0931   -1.8025    0.0000 O   0  0  0  0  0  0  0  0  0  0  0  0
    4.5160   -0.3319    0.0000 C   0  0  0  0  0  0  0  0  0  0  0  0
    4.4445   -1.0477    0.0000 C   0  0  0  0  0  0  0  0  0  0  0  0
    4.5616    1.2950    0.0000 C   0  0  0  0  0  0  0  0  0  0  0  0
    4.6722    2.5769    0.0000 C   0  0  0  0  0  0  0  0  0  0  0  0
   -1.2429   -1.7700    0.0000 C   0  0  2  0  0  0  0  0  0  0  0  0
   -1.1973   -0.3384    0.0000 C   0  0  0  0  0  0  0  0  0  0  0  0
   -0.7353   -3.3187    0.0000 O   0  0  0  0  0  0  0  0  0  0  0  0
   -1.6398   -2.7526    0.0000 C   0  0  0  0  0  0  0  0  0  0  0  0
    4.5291   -3.1560    0.0000 O   0  0  0  0  0  0  0  0  0  0  0  0
    4.8740   -1.7635    0.0000 C   0  0  1  0  0  0  0  0  0  0  0  0
    4.7113    0.4751    0.0000 C   0  0  1  0  0  0  0  0  0  0  0  0
   -2.0758   -1.7374    0.0000 O   0  0  0  0  0  0  0  0  0  0  0  0
   -1.3925   -3.8198    0.0000 C   0  0  0  0  0  0  0  0  0  0  0  0
    5.3230   -3.3512    0.0000 C   0  0  2  0  0  0  0  0  0  0  0  0
    4.7959   -1.3210    0.0000 O   0  0  0  0  0  0  0  0  0  0  0  0
    5.6678   -1.9587    0.0000 C   0  0  1  0  0  0  0  0  0  0  0  0
    5.5312    0.4555    0.0000 C   0  0  0  0  0  0  0  0  0  0  0  0
    5.8891   -2.7461    0.0000 C   0  0  0  0  0  0  0  0  0  0  0  0
    5.5442   -4.1386    0.0000 C   0  0  0  0  0  0  0  0  0  0  0  0
    6.2340   -1.3535    0.0000 N   0  0  0  0  0  0  0  0  0  0  0  0
    7.0279   -1.5487    0.0000 C   0  0  0  0  0  0  0  0  0  0  0  0
    5.9997   -0.5531    0.0000 C   0  0  0  0  0  0  0  0  0  0  0  0
  1  2  2  0  0  0  0
  2  3  1  0  0  0  0
  2  4  1  0  0  0  0
  3  5  1  0  0  0  0
  4  6  1  0  0  0  0
  4  7  1  6  0  0  0
  5  8  1  0  0  0  0
  5  9  1  1  0  0  0
  6 10  1  1  0  0  0
  6 11  1  0  0  0  0
  8 12  1  6  0  0  0
  8 13  1  0  0  0  0
  8 14  1  0  0  0  0
  9 15  1  0  0  0  0
 16 10  1  6  0  0  0
 11 17  1  0  0  0  0
 11 18  1  6  0  0  0
 13 19  1  1  0  0  0
 13 20  1  0  0  0  0
 16 21  1  0  0  0  0
 16 22  1  0  0  0  0
 17 23  1  1  0  0  0
 17 24  1  0  0  0  0
 20 25  1  0  0  0  0
 20 26  1  6  0  0  0
 21 27  1  0  0  0  0
 22 28  1  0  0  0  0
 29 23  1  6  0  0  0
 24 30  1  6  0  0  0
 24 31  1  0  0  0  0
 24 32  1  0  0  0  0
 25 33  1  0  0  0  0
 25 34  1  0  0  0  0
 27 35  1  0  0  0  0
 27 36  1  1  0  0  0
 28 37  1  6  0  0  0
 28 38  1  0  0  0  0
 29 39  1  0  0  0  0
 29 40  1  0  0  0  0
 31 41  1  0  0  0  0
 35 42  1  6  0  0  0
 37 43  1  0  0  0  0
 39 44  1  0  0  0  0
 40 45  1  1  0  0  0
 40 46  1  0  0  0  0
 41 47  1  1  0  0  0
 44 48  1  0  0  0  0
 44 49  1  6  0  0  0
 46 50  1  6  0  0  0
 50 51  1  0  0  0  0
 50 52  1  0  0  0  0
 28 35  1  0  0  0  0
 33 41  1  0  0  0  0
 46 48  1  0  0  0  0
M  END

>  <name>
Azithromycin

>  <ROTATABLE_BONDCOUNT>
7

>  <HBDScore>
0.0

>  <dipole>
3.94

>  <logD>
-1.23

>  <MPOScore>
2.215

>  <logDScore>
1.0

>  <MW>
748.996

>  <charge_dist(7.4)>
1.96

>  <CNS>
FALSE

>  <ArRings>
0

>  <HBD>
5

>  <BALABAN_INDEX>
2.09

>  <bpKa>
9.57

>  <TPSAScore>
0.0

>  <MWScore>
0.0

>  <bpKaScore>
0.21499999999999986

>  <logPScore>
1.0

>  <MPO_area>
20.25

>  <TPSA>
180.08

>  <logP>
2.44

$$$$

  Mrv1722703221715202D          

 26 27  0  0  0  0            999 V2000
    0.0000    0.0000    0.0000 O   0  0  0  0  0  0  0  0  0  0  0  0
   -0.7933   -0.2266    0.0000 C   0  0  0  0  0  0  0  0  0  0  0  0
   -0.9884   -1.0199    0.0000 O   0  0  0  0  0  0  0  0  0  0  0  0
   -1.3976    0.3462    0.0000 C   0  0  0  0  0  0  0  0  0  0  0  0
   -1.2150    1.1521    0.0000 C   0  0  0  0  0  0  0  0  0  0  0  0
   -2.1909    0.1196    0.0000 C   0  0  0  0  0  0  0  0  0  0  0  0
   -0.4344    1.3913    0.0000 O   0  0  0  0  0  0  0  0  0  0  0  0
   -1.8194    1.7250    0.0000 C   0  0  0  0  0  0  0  0  0  0  0  0
   -2.7952    0.6925    0.0000 C   0  0  0  0  0  0  0  0  0  0  0  0
   -2.6126    1.4983    0.0000 C   0  0  0  0  0  0  0  0  0  0  0  0
   -3.5884    0.4659    0.0000 N   0  0  0  0  0  0  0  0  0  0  0  0
   -4.1928    1.0387    0.0000 N   0  0  0  0  0  0  0  0  0  0  0  0
   -4.9860    0.8121    0.0000 C   0  0  0  0  0  0  0  0  0  0  0  0
   -5.5904    1.3850    0.0000 C   0  0  0  0  0  0  0  0  0  0  0  0
   -5.1812    0.0189    0.0000 C   0  0  0  0  0  0  0  0  0  0  0  0
   -6.3836    1.1584    0.0000 C   0  0  0  0  0  0  0  0  0  0  0  0
   -5.9744   -0.2077    0.0000 C   0  0  0  0  0  0  0  0  0  0  0  0
   -6.5788    0.3651    0.0000 C   0  0  0  0  0  0  0  0  0  0  0  0
   -7.3720    0.1385    0.0000 C   0  0  0  0  0  0  0  0  0  0  0  0
   -7.5672   -0.6547    0.0000 O   0  0  0  0  0  0  0  0  0  0  0  0
   -7.9764    0.7114    0.0000 N   0  0  0  0  0  0  0  0  0  0  0  0
   -8.7696    0.4848    0.0000 C   0  0  0  0  0  0  0  0  0  0  0  0
   -9.3740    1.0576    0.0000 C   0  0  0  0  0  0  0  0  0  0  0  0
  -10.1672    0.8310    0.0000 C   0  0  0  0  0  0  0  0  0  0  0  0
  -10.3624    0.0378    0.0000 O   0  0  0  0  0  0  0  0  0  0  0  0
  -10.7715    1.4039    0.0000 O   0  0  0  0  0  0  0  0  0  0  0  0
  1  2  2  0  0  0  0
  2  3  1  0  0  0  0
  2  4  1  0  0  0  0
  4  5  2  0  0  0  0
  4  6  1  0  0  0  0
  5  7  1  0  0  0  0
  5  8  1  0  0  0  0
  6  9  2  0  0  0  0
  8 10  2  0  0  0  0
  9 11  1  0  0  0  0
 11 12  2  0  0  0  0
 12 13  1  0  0  0  0
 13 14  2  0  0  0  0
 13 15  1  0  0  0  0
 14 16  1  0  0  0  0
 15 17  2  0  0  0  0
 16 18  2  0  0  0  0
 18 19  1  0  0  0  0
 19 20  2  0  0  0  0
 19 21  1  0  0  0  0
 21 22  1  0  0  0  0
 22 23  1  0  0  0  0
 23 24  1  0  0  0  0
 24 25  2  0  0  0  0
 24 26  1  0  0  0  0
  9 10  1  0  0  0  0
 17 18  1  0  0  0  0
M  END

>  <name>
Balsalazide

>  <ROTATABLE_BONDCOUNT>
7

>  <HBDScore>
0.0

>  <dipole>
10.40

>  <logD>
-3.62

>  <MPOScore>
3.915

>  <logDScore>
1.0

>  <MW>
357.322

>  <charge_dist(7.4)>
-2.00

>  <CNS>
FALSE

>  <ArRings>
2

>  <HBD>
4

>  <BALABAN_INDEX>
1.63

>  <bpKa>
-0.03

>  <TPSAScore>
0.0

>  <MWScore>
1.0

>  <bpKaScore>
1.0

>  <logPScore>
0.915

>  <MPO_area>
48.58

>  <TPSA>
148.65

>  <logP>
3.17

$$$$

  Mrv1722703221715202D          

 37 41  0  0  0  0            999 V2000
    0.0000    0.0000    0.0000 Br  0  0  0  0  0  0  0  0  0  0  0  0
    0.6553    0.5061    0.0000 C   0  0  0  0  0  0  0  0  0  0  0  0
    1.4145    0.1882    0.0000 C   0  0  0  0  0  0  0  0  0  0  0  0
    0.5450    1.3366    0.0000 C   0  0  0  0  0  0  0  0  0  0  0  0
    2.0698    0.6942    0.0000 C   0  0  0  0  0  0  0  0  0  0  0  0
    1.2004    1.8427    0.0000 C   0  0  0  0  0  0  0  0  0  0  0  0
    1.9595    1.5248    0.0000 C   0  0  0  0  0  0  0  0  0  0  0  0
    2.8290    0.3763    0.0000 C   0  0  0  0  0  0  0  0  0  0  0  0
    2.6149    2.0309    0.0000 N   0  0  0  0  0  0  0  0  0  0  0  0
    3.4844    0.8824    0.0000 C   0  0  0  0  0  0  0  0  0  0  0  0
    3.3741    1.7130    0.0000 C   0  0  0  0  0  0  0  0  0  0  0  0
    4.2435    0.5645    0.0000 C   0  0  1  0  0  0  0  0  0  0  0  0
    4.0294    2.2191    0.0000 O   0  0  0  0  0  0  0  0  0  0  0  0
    4.3408   -0.2530    0.0000 C   0  0  0  0  0  0  0  0  0  0  0  0
    4.8989    1.0706    0.0000 C   0  0  2  0  0  0  0  0  0  0  0  0
    3.9191    3.0496    0.0000 C   0  0  0  0  0  0  0  0  0  0  0  0
    3.6725   -0.7462    0.0000 C   0  0  0  0  0  0  0  0  0  0  0  0
    5.1000   -0.5710    0.0000 C   0  0  0  0  0  0  0  0  0  0  0  0
    4.3928    1.7389    0.0000 O   0  0  0  0  0  0  0  0  0  0  0  0
    5.3920    0.4153    0.0000 C   0  0  0  0  0  0  0  0  0  0  0  0
    5.5542    1.5767    0.0000 C   0  0  0  0  0  0  0  0  0  0  0  0
    3.7699   -1.5637    0.0000 C   0  0  0  0  0  0  0  0  0  0  0  0
    5.1973   -1.3886    0.0000 C   0  0  0  0  0  0  0  0  0  0  0  0
    6.2096    0.5256    0.0000 C   0  0  0  0  0  0  0  0  0  0  0  0
    5.0611   -0.3439    0.0000 C   0  0  0  0  0  0  0  0  0  0  0  0
    5.4439    2.4072    0.0000 C   0  0  0  0  0  0  0  0  0  0  0  0
    4.5290   -1.8817    0.0000 C   0  0  0  0  0  0  0  0  0  0  0  0
    6.7026   -0.1297    0.0000 C   0  0  0  0  0  0  0  0  0  0  0  0
    6.5275    1.2977    0.0000 C   0  0  0  0  0  0  0  0  0  0  0  0
    5.5542   -0.9992    0.0000 C   0  0  0  0  0  0  0  0  0  0  0  0
    6.0992    2.9134    0.0000 N   0  0  0  0  0  0  0  0  0  0  0  0
    6.3717   -0.8889    0.0000 C   0  0  0  0  0  0  0  0  0  0  0  0
    7.5202   -0.0195    0.0000 C   0  0  0  0  0  0  0  0  0  0  0  0
    7.3450    1.4080    0.0000 C   0  0  0  0  0  0  0  0  0  0  0  0
    5.9889    3.7439    0.0000 C   0  0  0  0  0  0  0  0  0  0  0  0
    6.8584    2.5954    0.0000 C   0  0  0  0  0  0  0  0  0  0  0  0
    7.8382    0.7527    0.0000 C   0  0  0  0  0  0  0  0  0  0  0  0
  1  2  1  0  0  0  0
  2  3  2  0  0  0  0
  2  4  1  0  0  0  0
  3  5  1  0  0  0  0
  4  6  2  0  0  0  0
  5  7  2  0  0  0  0
  5  8  1  0  0  0  0
  7  9  1  0  0  0  0
  8 10  2  0  0  0  0
  9 11  2  0  0  0  0
 12 10  1  6  0  0  0
 11 13  1  0  0  0  0
 12 14  1  0  0  0  0
 12 15  1  0  0  0  0
 13 16  1  0  0  0  0
 14 17  2  0  0  0  0
 14 18  1  0  0  0  0
 15 19  1  6  0  0  0
 15 20  1  0  0  0  0
 15 21  1  0  0  0  0
 17 22  1  0  0  0  0
 18 23  2  0  0  0  0
 20 24  1  0  0  0  0
 20 25  2  0  0  0  0
 21 26  1  0  0  0  0
 22 27  2  0  0  0  0
 24 28  2  0  0  0  0
 24 29  1  0  0  0  0
 25 30  1  0  0  0  0
 26 31  1  0  0  0  0
 28 32  1  0  0  0  0
 28 33  1  0  0  0  0
 29 34  2  0  0  0  0
 31 35  1  0  0  0  0
 31 36  1  0  0  0  0
 33 37  2  0  0  0  0
  6  7  1  0  0  0  0
 10 11  1  0  0  0  0
 23 27  1  0  0  0  0
 30 32  2  0  0  0  0
 34 37  1  0  0  0  0
M  END

>  <name>
Bedaquiline

>  <ROTATABLE_BONDCOUNT>
8

>  <HBDScore>
0.8333333333333334

>  <dipole>
5.20

>  <logD>
5.61

>  <MPOScore>
2.3783333333333334

>  <logDScore>
0.0

>  <MW>
555.516

>  <charge_dist(7.4)>
0.97

>  <CNS>
FALSE

>  <ArRings>
5

>  <HBD>
1

>  <BALABAN_INDEX>
1.34

>  <bpKa>
8.91

>  <TPSAScore>
1.0

>  <MWScore>
0.0

>  <bpKaScore>
0.5449999999999999

>  <logPScore>
0.0

>  <MPO_area>
21.46

>  <TPSA>
45.59

>  <logP>
7.13

$$$$

  Mrv1722703221715202D          

 31 33  0  0  0  0            999 V2000
    0.0000    0.0000    0.0000 O   0  0  0  0  0  0  0  0  0  0  0  0
    0.1879    0.8035    0.0000 C   0  0  0  0  0  0  0  0  0  0  0  0
    0.9850    0.9785    0.0000 N   0  0  0  0  0  0  0  0  0  0  0  0
   -0.4536    1.3349    0.0000 C   0  0  1  0  0  0  0  0  0  0  0  0
    1.3479    1.7237    0.0000 C   0  0  0  0  0  0  0  0  0  0  0  0
    1.4839    0.3305    0.0000 C   0  0  0  0  0  0  0  0  0  0  0  0
   -1.2053    0.9979    0.0000 N   0  0  0  0  0  0  0  0  0  0  0  0
   -0.4471    2.1644    0.0000 C   0  0  0  0  0  0  0  0  0  0  0  0
    0.9979    2.4754    0.0000 C   0  0  0  0  0  0  0  0  0  0  0  0
    2.1579    1.6524    0.0000 C   0  0  0  0  0  0  0  0  0  0  0  0
    1.1664   -0.4212    0.0000 C   0  0  0  0  0  0  0  0  0  0  0  0
   -1.8857    1.4775    0.0000 C   0  0  2  0  0  0  0  0  0  0  0  0
    0.2009    2.6763    0.0000 C   0  0  0  0  0  0  0  0  0  0  0  0
    1.4645    3.1558    0.0000 C   0  0  0  0  0  0  0  0  0  0  0  0
    2.6244    2.3328    0.0000 C   0  0  0  0  0  0  0  0  0  0  0  0
    0.3434   -0.5249    0.0000 O   0  0  0  0  0  0  0  0  0  0  0  0
    1.6654   -1.0692    0.0000 O   0  0  0  0  0  0  0  0  0  0  0  0
   -1.8144    2.3005    0.0000 C   0  0  0  0  0  0  0  0  0  0  0  0
   -2.6374    1.1405    0.0000 C   0  0  0  0  0  0  0  0  0  0  0  0
    2.2745    3.0845    0.0000 C   0  0  0  0  0  0  0  0  0  0  0  0
   -1.0757    2.6504    0.0000 O   0  0  0  0  0  0  0  0  0  0  0  0
   -2.4948    2.7800    0.0000 O   0  0  0  0  0  0  0  0  0  0  0  0
   -3.3178    1.6200    0.0000 C   0  0  0  0  0  0  0  0  0  0  0  0
   -2.4236    3.6029    0.0000 C   0  0  0  0  0  0  0  0  0  0  0  0
   -4.0695    1.2831    0.0000 C   0  0  0  0  0  0  0  0  0  0  0  0
   -3.1040    4.0825    0.0000 C   0  0  0  0  0  0  0  0  0  0  0  0
   -4.7499    1.7626    0.0000 C   0  0  0  0  0  0  0  0  0  0  0  0
   -4.1537    0.4730    0.0000 C   0  0  0  0  0  0  0  0  0  0  0  0
   -5.5016    1.4256    0.0000 C   0  0  0  0  0  0  0  0  0  0  0  0
   -4.9054    0.1361    0.0000 C   0  0  0  0  0  0  0  0  0  0  0  0
   -5.5858    0.6156    0.0000 C   0  0  0  0  0  0  0  0  0  0  0  0
  1  2  2  0  0  0  0
  2  3  1  0  0  0  0
  2  4  1  0  0  0  0
  3  5  1  0  0  0  0
  3  6  1  0  0  0  0
  4  7  1  1  0  0  0
  4  8  1  0  0  0  0
  5  9  2  0  0  0  0
  5 10  1  0  0  0  0
  6 11  1  0  0  0  0
 12  7  1  1  0  0  0
  8 13  1  0  0  0  0
  9 14  1  0  0  0  0
 10 15  2  0  0  0  0
 11 16  2  0  0  0  0
 11 17  1  0  0  0  0
 12 18  1  0  0  0  0
 12 19  1  0  0  0  0
 14 20  2  0  0  0  0
 18 21  2  0  0  0  0
 18 22  1  0  0  0  0
 19 23  1  0  0  0  0
 22 24  1  0  0  0  0
 23 25  1  0  0  0  0
 24 26  1  0  0  0  0
 25 27  2  0  0  0  0
 25 28  1  0  0  0  0
 27 29  1  0  0  0  0
 28 30  2  0  0  0  0
 29 31  2  0  0  0  0
  9 13  1  0  0  0  0
 15 20  1  0  0  0  0
 30 31  1  0  0  0  0
M  END

>  <name>
Benazepril

>  <ROTATABLE_BONDCOUNT>
10

>  <HBDScore>
0.5

>  <dipole>
4.37

>  <logD>
0.07

>  <MPOScore>
4.8413071428571435

>  <logDScore>
1.0

>  <MW>
424.497

>  <charge_dist(7.4)>
-0.99

>  <CNS>
FALSE

>  <ArRings>
2

>  <HBD>
2

>  <BALABAN_INDEX>
1.63

>  <bpKa>
5.36

>  <TPSAScore>
0.802

>  <MWScore>
0.5393071428571428

>  <bpKaScore>
1.0

>  <logPScore>
1.0

>  <MPO_area>
66.74

>  <TPSA>
95.94

>  <logP>
1.54

$$$$

  Mrv1722703221715202D          

 27 29  0  0  0  0            999 V2000
    0.0000    0.0000    0.0000 S   0  0  0  0  0  0  0  0  0  0  0  0
   -0.7857    0.3012    0.0000 O   0  0  0  0  0  0  0  0  0  0  0  0
    0.1441    0.8250    0.0000 O   0  0  0  0  0  0  0  0  0  0  0  0
    0.8250    0.0000    0.0000 N   0  0  0  0  0  0  0  0  0  0  0  0
   -0.4321   -0.7071    0.0000 C   0  0  0  0  0  0  0  0  0  0  0  0
    1.2244   -0.7202    0.0000 C   0  0  2  0  0  0  0  0  0  0  0  0
   -0.0327   -1.4274    0.0000 C   0  0  0  0  0  0  0  0  0  0  0  0
   -1.2702   -0.6940    0.0000 C   0  0  0  0  0  0  0  0  0  0  0  0
    0.7923   -1.4274    0.0000 N   0  0  0  0  0  0  0  0  0  0  0  0
    2.0494   -0.7202    0.0000 C   0  0  0  0  0  0  0  0  0  0  0  0
   -0.4649   -2.1345    0.0000 C   0  0  0  0  0  0  0  0  0  0  0  0
   -1.7024   -1.4012    0.0000 C   0  0  0  0  0  0  0  0  0  0  0  0
    2.4488   -1.4405    0.0000 C   0  0  0  0  0  0  0  0  0  0  0  0
   -1.3030   -2.1214    0.0000 C   0  0  0  0  0  0  0  0  0  0  0  0
   -2.5405   -1.3881    0.0000 S   0  0  0  0  0  0  0  0  0  0  0  0
    2.0166   -2.1476    0.0000 C   0  0  0  0  0  0  0  0  0  0  0  0
    3.2738   -1.4405    0.0000 C   0  0  0  0  0  0  0  0  0  0  0  0
   -1.7351   -2.8285    0.0000 C   0  0  0  0  0  0  0  0  0  0  0  0
   -2.6387   -2.0494    0.0000 O   0  0  0  0  0  0  0  0  0  0  0  0
   -2.5405   -0.5500    0.0000 O   0  0  0  0  0  0  0  0  0  0  0  0
   -3.3786   -1.3750    0.0000 N   0  0  0  0  0  0  0  0  0  0  0  0
    2.4161   -2.8678    0.0000 C   0  0  0  0  0  0  0  0  0  0  0  0
    3.6732   -2.1607    0.0000 C   0  0  0  0  0  0  0  0  0  0  0  0
   -2.1672   -3.5357    0.0000 F   0  0  0  0  0  0  0  0  0  0  0  0
   -1.0280   -3.2476    0.0000 F   0  0  0  0  0  0  0  0  0  0  0  0
   -2.3571   -2.5536    0.0000 F   0  0  0  0  0  0  0  0  0  0  0  0
    3.2411   -2.8678    0.0000 C   0  0  0  0  0  0  0  0  0  0  0  0
  1  2  2  0  0  0  0
  1  3  2  0  0  0  0
  1  4  1  0  0  0  0
  1  5  1  0  0  0  0
  4  6  1  0  0  0  0
  5  7  2  0  0  0  0
  5  8  1  0  0  0  0
  6  9  1  0  0  0  0
  6 10  1  1  0  0  0
  7 11  1  0  0  0  0
  8 12  2  0  0  0  0
 10 13  1  0  0  0  0
 11 14  2  0  0  0  0
 12 15  1  0  0  0  0
 13 16  2  0  0  0  0
 13 17  1  0  0  0  0
 14 18  1  0  0  0  0
 15 19  2  0  0  0  0
 15 20  2  0  0  0  0
 15 21  1  0  0  0  0
 16 22  1  0  0  0  0
 17 23  2  0  0  0  0
 18 24  1  0  0  0  0
 18 25  1  0  0  0  0
 18 26  1  0  0  0  0
 22 27  2  0  0  0  0
  7  9  1  0  0  0  0
 12 14  1  0  0  0  0
 23 27  1  0  0  0  0
M  END

>  <name>
Bendroflumethiazide

>  <ROTATABLE_BONDCOUNT>
4

>  <HBDScore>
0.16666666666666674

>  <dipole>
11.90

>  <logD>
1.69

>  <MPOScore>
3.782690476190476

>  <logDScore>
1.0

>  <MW>
421.41

>  <charge_dist(7.4)>
-0.03

>  <CNS>
FALSE

>  <ArRings>
2

>  <HBD>
3

>  <BALABAN_INDEX>
1.70

>  <bpKa>
-3.09

>  <TPSAScore>
0.05466666666666675

>  <MWScore>
0.5613571428571427

>  <bpKaScore>
1.0

>  <logPScore>
1.0

>  <MPO_area>
45.31

>  <TPSA>
118.36

>  <logP>
1.70

$$$$

  Mrv1722703221715202D          

 30 32  0  0  0  0            999 V2000
    0.0000    0.0000    0.0000 O   0  0  0  0  0  0  0  0  0  0  0  0
   -0.5800   -0.5863    0.0000 C   0  0  0  0  0  0  0  0  0  0  0  0
   -0.3594   -1.3743    0.0000 O   0  0  0  0  0  0  0  0  0  0  0  0
   -1.3869   -0.3782    0.0000 C   0  0  0  0  0  0  0  0  0  0  0  0
   -1.9669   -0.9646    0.0000 C   0  0  0  0  0  0  0  0  0  0  0  0
   -1.6202    0.4224    0.0000 C   0  0  0  0  0  0  0  0  0  0  0  0
   -2.7739   -0.7565    0.0000 C   0  0  0  0  0  0  0  0  0  0  0  0
   -2.4271    0.6304    0.0000 C   0  0  0  0  0  0  0  0  0  0  0  0
   -3.0071    0.0442    0.0000 C   0  0  0  0  0  0  0  0  0  0  0  0
   -3.8141    0.2522    0.0000 N   0  0  0  0  0  0  0  0  0  0  0  0
   -4.0473    1.0528    0.0000 C   0  0  0  0  0  0  0  0  0  0  0  0
   -3.4800    1.6517    0.0000 O   0  0  0  0  0  0  0  0  0  0  0  0
   -4.8543    1.2608    0.0000 C   0  0  1  0  0  0  0  0  0  0  0  0
   -5.4343    0.6746    0.0000 N   0  0  0  0  0  0  0  0  0  0  0  0
   -5.0875    2.0615    0.0000 C   0  0  0  0  0  0  0  0  0  0  0  0
   -6.2412    0.8826    0.0000 C   0  0  0  0  0  0  0  0  0  0  0  0
   -4.5202    2.6604    0.0000 C   0  0  0  0  0  0  0  0  0  0  0  0
   -6.4745    1.6832    0.0000 O   0  0  0  0  0  0  0  0  0  0  0  0
   -6.8212    0.2963    0.0000 C   0  0  0  0  0  0  0  0  0  0  0  0
   -4.7534    3.4610    0.0000 C   0  0  0  0  0  0  0  0  0  0  0  0
   -3.7258    2.4650    0.0000 C   0  0  0  0  0  0  0  0  0  0  0  0
   -7.6281    0.5044    0.0000 C   0  0  0  0  0  0  0  0  0  0  0  0
   -6.6006   -0.4917    0.0000 C   0  0  0  0  0  0  0  0  0  0  0  0
   -4.1860    4.0599    0.0000 C   0  0  0  0  0  0  0  0  0  0  0  0
   -3.1584    3.0639    0.0000 C   0  0  0  0  0  0  0  0  0  0  0  0
   -8.2081   -0.0820    0.0000 C   0  0  0  0  0  0  0  0  0  0  0  0
   -7.1805   -1.0780    0.0000 C   0  0  0  0  0  0  0  0  0  0  0  0
   -3.3917    3.8645    0.0000 C   0  0  0  0  0  0  0  0  0  0  0  0
   -7.9875   -0.8700    0.0000 C   0  0  0  0  0  0  0  0  0  0  0  0
   -2.8243    4.4634    0.0000 O   0  0  0  0  0  0  0  0  0  0  0  0
  1  2  2  0  0  0  0
  2  3  1  0  0  0  0
  2  4  1  0  0  0  0
  4  5  2  0  0  0  0
  4  6  1  0  0  0  0
  5  7  1  0  0  0  0
  6  8  2  0  0  0  0
  7  9  2  0  0  0  0
  9 10  1  0  0  0  0
 10 11  1  0  0  0  0
 11 12  2  0  0  0  0
 11 13  1  0  0  0  0
 13 14  1  1  0  0  0
 13 15  1  0  0  0  0
 14 16  1  0  0  0  0
 15 17  1  0  0  0  0
 16 18  2  0  0  0  0
 16 19  1  0  0  0  0
 17 20  2  0  0  0  0
 17 21  1  0  0  0  0
 19 22  2  0  0  0  0
 19 23  1  0  0  0  0
 20 24  1  0  0  0  0
 21 25  2  0  0  0  0
 22 26  1  0  0  0  0
 23 27  2  0  0  0  0
 24 28  2  0  0  0  0
 26 29  2  0  0  0  0
 28 30  1  0  0  0  0
  8  9  1  0  0  0  0
 25 28  1  0  0  0  0
 27 29  1  0  0  0  0
M  END

>  <name>
Bentiromide

>  <ROTATABLE_BONDCOUNT>
7

>  <HBDScore>
0.0

>  <dipole>
1.91

>  <logD>
0.47

>  <MPOScore>
3.5550333333333333

>  <logDScore>
1.0

>  <MW>
404.422

>  <charge_dist(7.4)>
-1.01

>  <CNS>
FALSE

>  <ArRings>
3

>  <HBD>
4

>  <BALABAN_INDEX>
1.54

>  <bpKa>
-1.3

>  <TPSAScore>
0.1423333333333332

>  <MWScore>
0.6826999999999999

>  <bpKaScore>
1.0

>  <logPScore>
0.73

>  <MPO_area>
38.76

>  <TPSA>
115.73

>  <logP>
3.54

$$$$

  Mrv1722703221715202D          

 28 31  0  0  0  0            999 V2000
    0.0000    0.0000    0.0000 F   0  0  0  0  0  0  0  0  0  0  0  0
   -0.1687   -0.4542    0.0000 C   0  0  2  0  0  0  0  0  0  0  0  0
    0.6489   -0.4023    0.0000 C   0  0  2  0  0  0  0  0  0  0  0  0
   -0.6294    0.2401    0.0000 C   0  0  1  0  0  0  0  0  0  0  0  0
   -0.5451   -1.1875    0.0000 C   0  0  2  0  0  0  0  0  0  0  0  0
    1.0966   -1.0836    0.0000 C   0  0  0  0  0  0  0  0  0  0  0  0
    1.0123    0.3439    0.0000 C   0  0  0  0  0  0  0  0  0  0  0  0
    0.4283    0.0389    0.0000 C   0  0  0  0  0  0  0  0  0  0  0  0
   -0.2661    0.9863    0.0000 O   0  0  0  0  0  0  0  0  0  0  0  0
   -1.4600    0.2011    0.0000 C   0  0  0  0  0  0  0  0  0  0  0  0
   -1.3756   -1.2264    0.0000 C   0  0  1  0  0  0  0  0  0  0  0  0
   -0.0974   -1.8688    0.0000 C   0  0  0  0  0  0  0  0  0  0  0  0
    1.9142   -1.0317    0.0000 C   0  0  0  0  0  0  0  0  0  0  0  0
    0.7203   -1.8169    0.0000 C   0  0  0  0  0  0  0  0  0  0  0  0
    1.8298    0.3958    0.0000 C   0  0  0  0  0  0  0  0  0  0  0  0
   -1.8363   -0.5321    0.0000 C   0  0  1  0  0  0  0  0  0  0  0  0
   -1.9012   -1.8623    0.0000 C   0  0  0  0  0  0  0  0  0  0  0  0
    2.2776   -0.2855    0.0000 C   0  0  0  0  0  0  0  0  0  0  0  0
   -2.6409   -0.7462    0.0000 C   0  0  1  0  0  0  0  0  0  0  0  0
   -2.3684    0.1103    0.0000 C   0  0  0  0  0  0  0  0  0  0  0  0
   -2.6799   -1.5638    0.0000 C   0  0  1  0  0  0  0  0  0  0  0  0
    3.0951   -0.2336    0.0000 O   0  0  0  0  0  0  0  0  0  0  0  0
   -3.4715   -0.7852    0.0000 O   0  0  0  0  0  0  0  0  0  0  0  0
   -2.7772    0.0779    0.0000 C   0  0  0  0  0  0  0  0  0  0  0  0
   -3.3742   -2.0115    0.0000 C   0  0  0  0  0  0  0  0  0  0  0  0
   -2.1478    0.6099    0.0000 O   0  0  0  0  0  0  0  0  0  0  0  0
   -3.5558    0.3763    0.0000 C   0  0  0  0  0  0  0  0  0  0  0  0
   -3.6921    1.2004    0.0000 O   0  0  0  0  0  0  0  0  0  0  0  0
  2  1  1  1  0  0  0
  2  3  1  0  0  0  0
  2  4  1  0  0  0  0
  2  5  1  0  0  0  0
  3  6  1  0  0  0  0
  3  7  1  0  0  0  0
  3  8  1  6  0  0  0
  4  9  1  6  0  0  0
  4 10  1  0  0  0  0
  5 11  1  0  0  0  0
  5 12  1  1  0  0  0
  6 13  2  0  0  0  0
  6 14  1  0  0  0  0
  7 15  2  0  0  0  0
 10 16  1  0  0  0  0
 11 17  1  6  0  0  0
 13 18  1  0  0  0  0
 16 19  1  0  0  0  0
 16 20  1  6  0  0  0
 17 21  1  0  0  0  0
 18 22  2  0  0  0  0
 19 23  1  1  0  0  0
 19 24  1  0  0  0  0
 21 25  1  6  0  0  0
 24 26  2  0  0  0  0
 24 27  1  0  0  0  0
 27 28  1  0  0  0  0
 11 16  1  0  0  0  0
 12 14  1  0  0  0  0
 15 18  1  0  0  0  0
 19 21  1  0  0  0  0
M  END

>  <name>
Betamethasone

>  <ROTATABLE_BONDCOUNT>
2

>  <HBDScore>
0.16666666666666674

>  <dipole>
5.64

>  <logD>
1.68

>  <MPOScore>
4.773759523809525

>  <logDScore>
1.0

>  <MW>
392.467

>  <charge_dist(7.4)>
-0.00

>  <CNS>
FALSE

>  <ArRings>
0

>  <HBD>
3

>  <BALABAN_INDEX>
1.71

>  <bpKa>
-3.33

>  <TPSAScore>
0.8390000000000001

>  <MWScore>
0.7680928571428572

>  <bpKaScore>
1.0

>  <logPScore>
1.0

>  <MPO_area>
62.97

>  <TPSA>
94.83

>  <logP>
1.68

$$$$

  Mrv1722703221715202D          

 22 23  0  0  0  0            999 V2000
    0.0000    0.0000    0.0000 O   0  0  0  0  0  0  0  0  0  0  0  0
   -0.7781   -0.2743    0.0000 C   0  0  0  0  0  0  0  0  0  0  0  0
    0.6251   -0.5230    0.0000 C   0  0  0  0  0  0  0  0  0  0  0  0
   -0.9312   -1.0779    0.0000 C   0  0  0  0  0  0  0  0  0  0  0  0
   -1.4159    0.2615    0.0000 C   0  0  0  0  0  0  0  0  0  0  0  0
    1.3904   -0.2360    0.0000 C   0  0  1  0  0  0  0  0  0  0  0  0
   -1.7093   -1.3521    0.0000 C   0  0  0  0  0  0  0  0  0  0  0  0
   -2.1940   -0.0127    0.0000 C   0  0  0  0  0  0  0  0  0  0  0  0
    1.5307    0.5804    0.0000 O   0  0  0  0  0  0  0  0  0  0  0  0
    2.0155   -0.7590    0.0000 C   0  0  0  0  0  0  0  0  0  0  0  0
   -2.3471   -0.8164    0.0000 C   0  0  0  0  0  0  0  0  0  0  0  0
    2.7808   -0.4720    0.0000 N   0  0  0  0  0  0  0  0  0  0  0  0
   -3.1252   -1.0906    0.0000 C   0  0  0  0  0  0  0  0  0  0  0  0
    3.4058   -0.9950    0.0000 C   0  0  0  0  0  0  0  0  0  0  0  0
   -3.7630   -0.5549    0.0000 C   0  0  0  0  0  0  0  0  0  0  0  0
    4.1712   -0.7080    0.0000 C   0  0  0  0  0  0  0  0  0  0  0  0
    3.2528   -1.7986    0.0000 C   0  0  0  0  0  0  0  0  0  0  0  0
   -4.5411   -0.8291    0.0000 O   0  0  0  0  0  0  0  0  0  0  0  0
   -5.1789   -0.2934    0.0000 C   0  0  0  0  0  0  0  0  0  0  0  0
   -5.9570   -0.5676    0.0000 C   0  0  0  0  0  0  0  0  0  0  0  0
   -6.4928   -1.1927    0.0000 C   0  0  0  0  0  0  0  0  0  0  0  0
   -6.7734   -0.4145    0.0000 C   0  0  0  0  0  0  0  0  0  0  0  0
  1  2  1  0  0  0  0
  1  3  1  0  0  0  0
  2  4  2  0  0  0  0
  2  5  1  0  0  0  0
  3  6  1  0  0  0  0
  4  7  1  0  0  0  0
  5  8  2  0  0  0  0
  6  9  1  1  0  0  0
  6 10  1  0  0  0  0
  7 11  2  0  0  0  0
 10 12  1  0  0  0  0
 11 13  1  0  0  0  0
 12 14  1  0  0  0  0
 13 15  1  0  0  0  0
 14 16  1  0  0  0  0
 14 17  1  0  0  0  0
 15 18  1  0  0  0  0
 18 19  1  0  0  0  0
 19 20  1  0  0  0  0
 20 21  1  0  0  0  0
 20 22  1  0  0  0  0
  8 11  1  0  0  0  0
 21 22  1  0  0  0  0
M  END

>  <name>
Betaxolol

>  <ROTATABLE_BONDCOUNT>
11

>  <HBDScore>
0.5

>  <dipole>
3.46

>  <logD>
0.31

>  <MPOScore>
4.665

>  <logDScore>
1.0

>  <MW>
307.434

>  <charge_dist(7.4)>
0.99

>  <CNS>
FALSE

>  <ArRings>
1

>  <HBD>
2

>  <BALABAN_INDEX>
1.33

>  <bpKa>
9.67

>  <TPSAScore>
1.0

>  <MWScore>
1.0

>  <bpKaScore>
0.16500000000000004

>  <logPScore>
1.0

>  <MPO_area>
62.46

>  <TPSA>
50.72

>  <logP>
2.54

$$$$

  Mrv1722703221715202D          

 11 10  0  0  0  0            999 V2000
    0.0000    0.0000    0.0000 O   0  0  0  0  0  0  0  0  0  0  0  0
    0.8249   -0.0131    0.0000 C   0  0  0  0  0  0  0  0  0  0  0  0
    1.2504    0.7071    0.0000 O   0  0  0  0  0  0  0  0  0  0  0  0
    1.2177   -0.7332    0.0000 N   0  0  0  0  0  0  0  0  0  0  0  0
    2.0753    0.6940    0.0000 C   0  0  2  0  0  0  0  0  0  0  0  0
    2.4682   -0.0262    0.0000 C   0  0  0  0  0  0  0  0  0  0  0  0
    2.5009    1.4141    0.0000 C   0  0  0  0  0  0  0  0  0  0  0  0
    3.2931   -0.0393    0.0000 N   0  3  0  0  0  0  0  0  0  0  0  0
    3.2669   -0.8642    0.0000 C   0  0  0  0  0  0  0  0  0  0  0  0
    3.3062    0.7987    0.0000 C   0  0  0  0  0  0  0  0  0  0  0  0
    4.1180   -0.0524    0.0000 C   0  0  0  0  0  0  0  0  0  0  0  0
  1  2  2  0  0  0  0
  2  3  1  0  0  0  0
  2  4  1  0  0  0  0
  5  3  1  1  0  0  0
  5  6  1  0  0  0  0
  5  7  1  0  0  0  0
  6  8  1  0  0  0  0
  8  9  1  0  0  0  0
  8 10  1  0  0  0  0
  8 11  1  0  0  0  0
M  CHG  1   8   1
M  END

>  <name>
Bethanechol

>  <ROTATABLE_BONDCOUNT>
4

>  <HBDScore>
0.8333333333333334

>  <dipole>
9.53

>  <logD>
-4.14

>  <MPOScore>
5.833333333333333

>  <logDScore>
1.0

>  <MW>
161.224

>  <charge_dist(7.4)>
-0.00

>  <CNS>
FALSE

>  <ArRings>
0

>  <HBD>
1

>  <BALABAN_INDEX>
3.61

>  <bpKa>
0.0

>  <TPSAScore>
1.0

>  <MWScore>
1.0

>  <bpKaScore>
1.0

>  <logPScore>
1.0

>  <MPO_area>
94.44

>  <TPSA>
52.32

>  <logP>
-4.14

$$$$

  Mrv1722703221715202D          

 29 30  0  0  0  0            999 V2000
    0.0000    0.0000    0.0000 S   0  0  0  0  0  0  0  0  0  0  0  0
    0.3384   -0.7483    0.0000 O   0  0  0  0  0  0  0  0  0  0  0  0
   -0.3514    0.7613    0.0000 O   0  0  0  0  0  0  0  0  0  0  0  0
   -0.7613   -0.3384    0.0000 C   0  0  0  0  0  0  0  0  0  0  0  0
    0.7483    0.3514    0.0000 C   0  0  0  0  0  0  0  0  0  0  0  0
   -1.4446    0.1497    0.0000 C   0  0  0  0  0  0  0  0  0  0  0  0
   -0.8524   -1.1583    0.0000 C   0  0  0  0  0  0  0  0  0  0  0  0
    0.8264    1.1843    0.0000 C   0  0  2  0  0  0  0  0  0  0  0  0
   -2.2059   -0.1887    0.0000 C   0  0  0  0  0  0  0  0  0  0  0  0
   -1.6138   -1.4966    0.0000 C   0  0  0  0  0  0  0  0  0  0  0  0
    0.9045    2.0172    0.0000 O   0  0  0  0  0  0  0  0  0  0  0  0
    1.6463    1.1062    0.0000 C   0  0  0  0  0  0  0  0  0  0  0  0
   -0.0065    1.2754    0.0000 C   0  0  0  0  0  0  0  0  0  0  0  0
   -2.2970   -1.0086    0.0000 C   0  0  0  0  0  0  0  0  0  0  0  0
    2.1213    1.7895    0.0000 O   0  0  0  0  0  0  0  0  0  0  0  0
    1.9847    0.3579    0.0000 N   0  0  0  0  0  0  0  0  0  0  0  0
   -3.0584   -1.3470    0.0000 F   0  0  0  0  0  0  0  0  0  0  0  0
    2.8046    0.2798    0.0000 C   0  0  0  0  0  0  0  0  0  0  0  0
    3.1430   -0.4685    0.0000 C   0  0  0  0  0  0  0  0  0  0  0  0
    3.2796    0.9631    0.0000 C   0  0  0  0  0  0  0  0  0  0  0  0
    3.9629   -0.5466    0.0000 C   0  0  0  0  0  0  0  0  0  0  0  0
    4.0995    0.8850    0.0000 C   0  0  0  0  0  0  0  0  0  0  0  0
    4.4379    0.1366    0.0000 C   0  0  0  0  0  0  0  0  0  0  0  0
    4.3013   -1.2949    0.0000 C   0  0  0  0  0  0  0  0  0  0  0  0
    5.2578    0.0586    0.0000 C   0  0  0  0  0  0  0  0  0  0  0  0
    4.6396   -2.0433    0.0000 F   0  0  0  0  0  0  0  0  0  0  0  0
    3.5399   -1.6333    0.0000 F   0  0  0  0  0  0  0  0  0  0  0  0
    5.0496   -0.9436    0.0000 F   0  0  0  0  0  0  0  0  0  0  0  0
    6.0777   -0.0195    0.0000 N   0  0  0  0  0  0  0  0  0  0  0  0
  1  2  2  0  0  0  0
  1  3  2  0  0  0  0
  1  4  1  0  0  0  0
  1  5  1  0  0  0  0
  4  6  2  0  0  0  0
  4  7  1  0  0  0  0
  5  8  1  0  0  0  0
  6  9  1  0  0  0  0
  7 10  2  0  0  0  0
  8 11  1  6  0  0  0
  8 12  1  0  0  0  0
  8 13  1  0  0  0  0
  9 14  2  0  0  0  0
 12 15  2  0  0  0  0
 12 16  1  0  0  0  0
 14 17  1  0  0  0  0
 16 18  1  0  0  0  0
 18 19  2  0  0  0  0
 18 20  1  0  0  0  0
 19 21  1  0  0  0  0
 20 22  2  0  0  0  0
 21 23  2  0  0  0  0
 21 24  1  0  0  0  0
 23 25  1  0  0  0  0
 24 26  1  0  0  0  0
 24 27  1  0  0  0  0
 24 28  1  0  0  0  0
 25 29  3  0  0  0  0
 10 14  1  0  0  0  0
 22 23  1  0  0  0  0
M  END

>  <name>
Bicalutamide

>  <ROTATABLE_BONDCOUNT>
6

>  <HBDScore>
0.5

>  <dipole>
10.94

>  <logD>
2.71

>  <MPOScore>
4.067023809523809

>  <logDScore>
0.645

>  <MW>
430.37

>  <charge_dist(7.4)>
-0.00

>  <CNS>
FALSE

>  <ArRings>
2

>  <HBD>
2

>  <BALABAN_INDEX>
1.96

>  <bpKa>
-4.04

>  <TPSAScore>
0.4246666666666665

>  <MWScore>
0.49735714285714283

>  <bpKaScore>
1.0

>  <logPScore>
1.0

>  <MPO_area>
47.53

>  <TPSA>
107.26

>  <logP>
2.71

$$$$

  Mrv1722703221715202D          

 23 23  0  0  0  0            999 V2000
    0.0000    0.0000    0.0000 O   0  0  0  0  0  0  0  0  0  0  0  0
    0.7562    0.3297    0.0000 C   0  0  0  0  0  0  0  0  0  0  0  0
   -0.6658    0.5042    0.0000 C   0  0  0  0  0  0  0  0  0  0  0  0
    0.8532    1.1570    0.0000 C   0  0  0  0  0  0  0  0  0  0  0  0
    1.4090   -0.1616    0.0000 C   0  0  0  0  0  0  0  0  0  0  0  0
   -1.4349    0.1874    0.0000 C   0  0  1  0  0  0  0  0  0  0  0  0
    1.6094    1.4867    0.0000 C   0  0  0  0  0  0  0  0  0  0  0  0
    2.1653    0.1681    0.0000 C   0  0  0  0  0  0  0  0  0  0  0  0
   -1.5448   -0.6270    0.0000 O   0  0  0  0  0  0  0  0  0  0  0  0
   -2.1007    0.6916    0.0000 C   0  0  0  0  0  0  0  0  0  0  0  0
    2.2623    0.9954    0.0000 C   0  0  0  0  0  0  0  0  0  0  0  0
   -2.8699    0.3749    0.0000 N   0  0  0  0  0  0  0  0  0  0  0  0
    3.0185    1.3250    0.0000 C   0  0  0  0  0  0  0  0  0  0  0  0
   -3.5356    0.8790    0.0000 C   0  0  0  0  0  0  0  0  0  0  0  0
    3.6714    0.8338    0.0000 O   0  0  0  0  0  0  0  0  0  0  0  0
   -4.3047    0.5623    0.0000 C   0  0  0  0  0  0  0  0  0  0  0  0
   -3.4386    1.7064    0.0000 C   0  0  0  0  0  0  0  0  0  0  0  0
    4.4276    1.1634    0.0000 C   0  0  0  0  0  0  0  0  0  0  0  0
    5.0804    0.6722    0.0000 C   0  0  0  0  0  0  0  0  0  0  0  0
    5.8366    1.0019    0.0000 O   0  0  0  0  0  0  0  0  0  0  0  0
    6.4894    0.5106    0.0000 C   0  0  0  0  0  0  0  0  0  0  0  0
    7.2457    0.8403    0.0000 C   0  0  0  0  0  0  0  0  0  0  0  0
    6.3796   -0.3038    0.0000 C   0  0  0  0  0  0  0  0  0  0  0  0
  1  2  1  0  0  0  0
  1  3  1  0  0  0  0
  2  4  2  0  0  0  0
  2  5  1  0  0  0  0
  3  6  1  0  0  0  0
  4  7  1  0  0  0  0
  5  8  2  0  0  0  0
  6  9  1  1  0  0  0
  6 10  1  0  0  0  0
  7 11  2  0  0  0  0
 10 12  1  0  0  0  0
 11 13  1  0  0  0  0
 12 14  1  0  0  0  0
 13 15  1  0  0  0  0
 14 16  1  0  0  0  0
 14 17  1  0  0  0  0
 15 18  1  0  0  0  0
 18 19  1  0  0  0  0
 19 20  1  0  0  0  0
 20 21  1  0  0  0  0
 21 22  1  0  0  0  0
 21 23  1  0  0  0  0
  8 11  1  0  0  0  0
M  END

>  <name>
Bisoprolol

>  <ROTATABLE_BONDCOUNT>
12

>  <HBDScore>
0.5

>  <dipole>
3.76

>  <logD>
-0.03

>  <MPOScore>
4.665

>  <logDScore>
1.0

>  <MW>
325.449

>  <charge_dist(7.4)>
0.99

>  <CNS>
FALSE

>  <ArRings>
1

>  <HBD>
2

>  <BALABAN_INDEX>
1.91

>  <bpKa>
9.67

>  <TPSAScore>
1.0

>  <MWScore>
1.0

>  <bpKaScore>
0.16500000000000004

>  <logPScore>
1.0

>  <MPO_area>
62.46

>  <TPSA>
59.95

>  <logP>
2.20

$$$$

  Mrv1722703221715202D          

 37 39  0  0  0  0            999 V2000
    0.0000    0.0000    0.0000 O   0  0  0  0  0  0  0  0  0  0  0  0
    0.3245   -0.7528    0.0000 C   0  0  0  0  0  0  0  0  0  0  0  0
   -0.1752   -1.4147    0.0000 N   0  0  0  0  0  0  0  0  0  0  0  0
    1.1422   -0.8372    0.0000 N   0  0  0  0  0  0  0  0  0  0  0  0
   -1.0059   -1.3174    0.0000 C   0  0  0  0  0  0  0  0  0  0  0  0
    1.6289   -0.1622    0.0000 C   0  0  2  0  0  0  0  0  0  0  0  0
   -1.1032   -2.1351    0.0000 C   0  0  0  0  0  0  0  0  0  0  0  0
   -0.9215   -0.4867    0.0000 C   0  0  0  0  0  0  0  0  0  0  0  0
   -1.8365   -1.2200    0.0000 C   0  0  0  0  0  0  0  0  0  0  0  0
    2.4466   -0.2466    0.0000 C   0  0  0  0  0  0  0  0  0  0  0  0
    1.2914    0.6035    0.0000 C   0  0  0  0  0  0  0  0  0  0  0  0
    2.9333    0.4283    0.0000 O   0  0  0  0  0  0  0  0  0  0  0  0
    2.7711   -0.9994    0.0000 N   0  0  0  0  0  0  0  0  0  0  0  0
    0.5257    0.2791    0.0000 C   0  0  0  0  0  0  0  0  0  0  0  0
    2.0443    0.9410    0.0000 C   0  0  0  0  0  0  0  0  0  0  0  0
    0.9540    1.3693    0.0000 C   0  0  0  0  0  0  0  0  0  0  0  0
    3.5758   -1.1681    0.0000 C   0  0  2  0  0  0  0  0  0  0  0  0
    2.3492   -1.7068    0.0000 C   0  0  0  0  0  0  0  0  0  0  0  0
    4.1858   -0.6101    0.0000 C   0  0  0  0  0  0  0  0  0  0  0  0
    3.6536   -1.9858    0.0000 C   0  0  2  0  0  0  0  0  0  0  0  0
    2.8944   -2.3168    0.0000 C   0  0  1  0  0  0  0  0  0  0  0  0
    4.0106    0.2076    0.0000 O   0  0  0  0  0  0  0  0  0  0  0  0
    4.9646   -0.8631    0.0000 N   0  0  0  0  0  0  0  0  0  0  0  0
    3.5563   -2.8035    0.0000 C   0  0  0  0  0  0  0  0  0  0  0  0
    5.5746   -0.3050    0.0000 C   0  0  0  0  0  0  0  0  0  0  0  0
    4.3416   -3.0306    0.0000 C   0  0  0  0  0  0  0  0  0  0  0  0
    3.1799   -3.5369    0.0000 C   0  0  0  0  0  0  0  0  0  0  0  0
    5.3994    0.5127    0.0000 C   0  0  0  0  0  0  0  0  0  0  0  0
    6.3534   -0.5581    0.0000 C   0  0  0  0  0  0  0  0  0  0  0  0
    4.6076    0.7787    0.0000 O   0  0  0  0  0  0  0  0  0  0  0  0
    6.0094    1.0708    0.0000 C   0  0  0  0  0  0  0  0  0  0  0  0
    6.5156   -1.3628    0.0000 C   0  0  0  0  0  0  0  0  0  0  0  0
    6.7882    0.8177    0.0000 O   0  0  0  0  0  0  0  0  0  0  0  0
    5.8342    1.8885    0.0000 N   0  0  0  0  0  0  0  0  0  0  0  0
    7.2035   -1.8106    0.0000 C   0  0  0  0  0  0  0  0  0  0  0  0
    6.0548   -2.0507    0.0000 C   0  0  0  0  0  0  0  0  0  0  0  0
    6.7428   -2.4985    0.0000 C   0  0  0  0  0  0  0  0  0  0  0  0
  1  2  2  0  0  0  0
  2  3  1  0  0  0  0
  2  4  1  0  0  0  0
  3  5  1  0  0  0  0
  6  4  1  1  0  0  0
  5  7  1  0  0  0  0
  5  8  1  0  0  0  0
  5  9  1  0  0  0  0
  6 10  1  0  0  0  0
  6 11  1  0  0  0  0
 10 12  2  0  0  0  0
 10 13  1  0  0  0  0
 11 14  1  0  0  0  0
 11 15  1  0  0  0  0
 11 16  1  0  0  0  0
 13 17  1  0  0  0  0
 13 18  1  0  0  0  0
 17 19  1  6  0  0  0
 17 20  1  0  0  0  0
 21 18  1  1  0  0  0
 19 22  2  0  0  0  0
 19 23  1  0  0  0  0
 20 24  1  1  0  0  0
 23 25  1  0  0  0  0
 24 26  1  0  0  0  0
 24 27  1  0  0  0  0
 25 28  1  0  0  0  0
 25 29  1  0  0  0  0
 28 30  2  0  0  0  0
 28 31  1  0  0  0  0
 29 32  1  0  0  0  0
 31 33  2  0  0  0  0
 31 34  1  0  0  0  0
 32 35  1  0  0  0  0
 32 36  1  0  0  0  0
 35 37  1  0  0  0  0
 20 21  1  0  0  0  0
 21 24  1  0  0  0  0
 36 37  1  0  0  0  0
M  END

>  <name>
Boceprevir

>  <ROTATABLE_BONDCOUNT>
10

>  <HBDScore>
0.0

>  <dipole>
9.52

>  <logD>
1.78

>  <MPOScore>
3.0

>  <logDScore>
1.0

>  <MW>
519.687

>  <charge_dist(7.4)>
-0.00

>  <CNS>
FALSE

>  <ArRings>
0

>  <HBD>
4

>  <BALABAN_INDEX>
1.66

>  <bpKa>
-0.91

>  <TPSAScore>
0.0

>  <MWScore>
0.0

>  <bpKaScore>
1.0

>  <logPScore>
1.0

>  <MPO_area>
33.33

>  <TPSA>
150.70

>  <logP>
1.78

$$$$

  Mrv1722703221715202D          

 39 42  0  0  0  0            999 V2000
    0.0000    0.0000    0.0000 S   0  0  0  0  0  0  0  0  0  0  0  0
    0.0518    0.8294    0.0000 O   0  0  0  0  0  0  0  0  0  0  0  0
   -0.0648   -0.8165    0.0000 O   0  0  0  0  0  0  0  0  0  0  0  0
   -0.8294    0.0648    0.0000 N   0  0  0  0  0  0  0  0  0  0  0  0
    0.8165   -0.0518    0.0000 C   0  0  0  0  0  0  0  0  0  0  0  0
   -1.2960   -0.6156    0.0000 C   0  0  0  0  0  0  0  0  0  0  0  0
    1.1729   -0.7841    0.0000 C   0  0  0  0  0  0  0  0  0  0  0  0
    1.2701    0.6415    0.0000 C   0  0  0  0  0  0  0  0  0  0  0  0
   -0.9396   -1.3479    0.0000 N   0  0  0  0  0  0  0  0  0  0  0  0
   -2.1255   -0.5508    0.0000 C   0  0  0  0  0  0  0  0  0  0  0  0
    1.9894   -0.8359    0.0000 C   0  0  0  0  0  0  0  0  0  0  0  0
    2.0866    0.5897    0.0000 C   0  0  0  0  0  0  0  0  0  0  0  0
   -1.4062   -2.0283    0.0000 C   0  0  0  0  0  0  0  0  0  0  0  0
   -2.4948    0.1944    0.0000 O   0  0  0  0  0  0  0  0  0  0  0  0
   -2.5921   -1.2312    0.0000 C   0  0  0  0  0  0  0  0  0  0  0  0
    2.4430   -0.1426    0.0000 C   0  0  0  0  0  0  0  0  0  0  0  0
   -2.2356   -1.9635    0.0000 N   0  0  0  0  0  0  0  0  0  0  0  0
   -1.0498   -2.7606    0.0000 C   0  0  0  0  0  0  0  0  0  0  0  0
   -3.3243    0.2592    0.0000 C   0  0  0  0  0  0  0  0  0  0  0  0
   -3.4215   -1.1664    0.0000 O   0  0  0  0  0  0  0  0  0  0  0  0
    3.2595   -0.1944    0.0000 C   0  0  0  0  0  0  0  0  0  0  0  0
   -1.5164   -3.4409    0.0000 N   0  0  0  0  0  0  0  0  0  0  0  0
   -0.2333   -2.8124    0.0000 N   0  0  0  0  0  0  0  0  0  0  0  0
   -3.6937    1.0044    0.0000 C   0  0  0  0  0  0  0  0  0  0  0  0
   -3.7909   -0.4212    0.0000 C   0  0  0  0  0  0  0  0  0  0  0  0
   -3.8881   -1.8468    0.0000 C   0  0  0  0  0  0  0  0  0  0  0  0
    3.1947   -1.0109    0.0000 C   0  0  0  0  0  0  0  0  0  0  0  0
    3.3114    0.6351    0.0000 C   0  0  0  0  0  0  0  0  0  0  0  0
    4.0760   -0.2463    0.0000 C   0  0  0  0  0  0  0  0  0  0  0  0
   -1.1599   -4.1732    0.0000 C   0  0  0  0  0  0  0  0  0  0  0  0
    0.1231   -3.5446    0.0000 C   0  0  0  0  0  0  0  0  0  0  0  0
   -3.2401    1.6978    0.0000 O   0  0  0  0  0  0  0  0  0  0  0  0
   -4.5231    1.0692    0.0000 C   0  0  0  0  0  0  0  0  0  0  0  0
   -4.6203   -0.3564    0.0000 C   0  0  0  0  0  0  0  0  0  0  0  0
   -4.7176   -1.7820    0.0000 C   0  0  0  0  0  0  0  0  0  0  0  0
   -0.3435   -4.2250    0.0000 C   0  0  0  0  0  0  0  0  0  0  0  0
   -3.6094    2.4430    0.0000 C   0  0  0  0  0  0  0  0  0  0  0  0
   -4.9897    0.3888    0.0000 C   0  0  0  0  0  0  0  0  0  0  0  0
   -5.1841   -2.4625    0.0000 O   0  0  0  0  0  0  0  0  0  0  0  0
  1  2  2  0  0  0  0
  1  3  2  0  0  0  0
  1  4  1  0  0  0  0
  1  5  1  0  0  0  0
  4  6  1  0  0  0  0
  5  7  2  0  0  0  0
  5  8  1  0  0  0  0
  6  9  2  0  0  0  0
  6 10  1  0  0  0  0
  7 11  1  0  0  0  0
  8 12  2  0  0  0  0
  9 13  1  0  0  0  0
 10 14  1  0  0  0  0
 10 15  2  0  0  0  0
 11 16  2  0  0  0  0
 13 17  2  0  0  0  0
 13 18  1  0  0  0  0
 14 19  1  0  0  0  0
 15 20  1  0  0  0  0
 16 21  1  0  0  0  0
 18 22  2  0  0  0  0
 18 23  1  0  0  0  0
 19 24  2  0  0  0  0
 19 25  1  0  0  0  0
 20 26  1  0  0  0  0
 21 27  1  0  0  0  0
 21 28  1  0  0  0  0
 21 29  1  0  0  0  0
 22 30  1  0  0  0  0
 23 31  2  0  0  0  0
 24 32  1  0  0  0  0
 24 33  1  0  0  0  0
 25 34  2  0  0  0  0
 26 35  1  0  0  0  0
 30 36  2  0  0  0  0
 32 37  1  0  0  0  0
 33 38  2  0  0  0  0
 35 39  1  0  0  0  0
 12 16  1  0  0  0  0
 15 17  1  0  0  0  0
 31 36  1  0  0  0  0
 34 38  1  0  0  0  0
M  END

>  <name>
Bosentan

>  <ROTATABLE_BONDCOUNT>
10

>  <HBDScore>
0.5

>  <dipole>
12.48

>  <logD>
3.98

>  <MPOScore>
1.5399999999999998

>  <logDScore>
0.010000000000000009

>  <MW>
551.62

>  <charge_dist(7.4)>
-0.98

>  <CNS>
FALSE

>  <ArRings>
4

>  <HBD>
2

>  <BALABAN_INDEX>
1.46

>  <bpKa>
-0.43

>  <TPSAScore>
0.0

>  <MWScore>
0.0

>  <bpKaScore>
1.0

>  <logPScore>
0.029999999999999805

>  <MPO_area>
8.59

>  <TPSA>
145.65

>  <logP>
4.94

$$$$

  Mrv1722703221715202D          

 36 39  0  0  0  0            999 V2000
    0.0000    0.0000    0.0000 Cl  0  0  0  0  0  0  0  0  0  0  0  0
   -0.1481   -0.8111    0.0000 C   0  0  0  0  0  0  0  0  0  0  0  0
    0.4828   -1.3390    0.0000 C   0  0  0  0  0  0  0  0  0  0  0  0
   -0.9334   -1.0879    0.0000 C   0  0  0  0  0  0  0  0  0  0  0  0
    1.2553   -1.0493    0.0000 O   0  0  0  0  0  0  0  0  0  0  0  0
    0.3348   -2.1501    0.0000 C   0  0  0  0  0  0  0  0  0  0  0  0
   -1.0815   -1.8990    0.0000 C   0  0  0  0  0  0  0  0  0  0  0  0
    1.3904   -0.2253    0.0000 C   0  0  0  0  0  0  0  0  0  0  0  0
   -0.4506   -2.4268    0.0000 C   0  0  0  0  0  0  0  0  0  0  0  0
   -1.8668   -2.1758    0.0000 Cl  0  0  0  0  0  0  0  0  0  0  0  0
   -0.5987   -3.2380    0.0000 N   0  0  0  0  0  0  0  0  0  0  0  0
    0.0322   -3.7658    0.0000 C   0  0  0  0  0  0  0  0  0  0  0  0
   -0.1159   -4.5769    0.0000 C   0  0  0  0  0  0  0  0  0  0  0  0
    0.8047   -3.4761    0.0000 C   0  0  0  0  0  0  0  0  0  0  0  0
   -0.9012   -4.8537    0.0000 C   0  0  0  0  0  0  0  0  0  0  0  0
    0.5150   -5.1048    0.0000 C   0  0  0  0  0  0  0  0  0  0  0  0
    1.4355   -4.0040    0.0000 C   0  0  0  0  0  0  0  0  0  0  0  0
    0.9398   -2.6522    0.0000 C   0  0  0  0  0  0  0  0  0  0  0  0
   -1.6866   -5.1305    0.0000 N   0  0  0  0  0  0  0  0  0  0  0  0
    1.2875   -4.8151    0.0000 N   0  0  0  0  0  0  0  0  0  0  0  0
    2.2080   -3.7143    0.0000 C   0  0  0  0  0  0  0  0  0  0  0  0
    1.7123   -2.3625    0.0000 C   0  0  0  0  0  0  0  0  0  0  0  0
    2.3432   -2.8904    0.0000 C   0  0  0  0  0  0  0  0  0  0  0  0
    1.8475   -1.5385    0.0000 O   0  0  0  0  0  0  0  0  0  0  0  0
    3.1156   -2.6007    0.0000 O   0  0  0  0  0  0  0  0  0  0  0  0
    2.6200   -1.2488    0.0000 C   0  0  0  0  0  0  0  0  0  0  0  0
    3.7465   -3.1285    0.0000 C   0  0  0  0  0  0  0  0  0  0  0  0
    4.5190   -2.8389    0.0000 C   0  0  0  0  0  0  0  0  0  0  0  0
    5.1499   -3.3667    0.0000 C   0  0  0  0  0  0  0  0  0  0  0  0
    5.9223   -3.0770    0.0000 N   0  0  0  0  0  0  0  0  0  0  0  0
    6.5532   -3.6049    0.0000 C   0  0  0  0  0  0  0  0  0  0  0  0
    6.0575   -2.2530    0.0000 C   0  0  0  0  0  0  0  0  0  0  0  0
    7.3257   -3.3152    0.0000 C   0  0  0  0  0  0  0  0  0  0  0  0
    6.8300   -1.9634    0.0000 C   0  0  0  0  0  0  0  0  0  0  0  0
    7.4608   -2.4912    0.0000 N   0  0  0  0  0  0  0  0  0  0  0  0
    8.2333   -2.2016    0.0000 C   0  0  0  0  0  0  0  0  0  0  0  0
  1  2  1  0  0  0  0
  2  3  2  0  0  0  0
  2  4  1  0  0  0  0
  3  5  1  0  0  0  0
  3  6  1  0  0  0  0
  4  7  2  0  0  0  0
  5  8  1  0  0  0  0
  6  9  2  0  0  0  0
  7 10  1  0  0  0  0
  9 11  1  0  0  0  0
 11 12  1  0  0  0  0
 12 13  2  0  0  0  0
 12 14  1  0  0  0  0
 13 15  1  0  0  0  0
 13 16  1  0  0  0  0
 14 17  2  0  0  0  0
 14 18  1  0  0  0  0
 15 19  3  0  0  0  0
 16 20  2  0  0  0  0
 17 21  1  0  0  0  0
 18 22  2  0  0  0  0
 21 23  2  0  0  0  0
 22 24  1  0  0  0  0
 23 25  1  0  0  0  0
 24 26  1  0  0  0  0
 25 27  1  0  0  0  0
 27 28  1  0  0  0  0
 28 29  1  0  0  0  0
 29 30  1  0  0  0  0
 30 31  1  0  0  0  0
 30 32  1  0  0  0  0
 31 33  1  0  0  0  0
 32 34  1  0  0  0  0
 33 35  1  0  0  0  0
 35 36  1  0  0  0  0
  7  9  1  0  0  0  0
 17 20  1  0  0  0  0
 22 23  1  0  0  0  0
 34 35  1  0  0  0  0
M  END

>  <name>
Bosutinib

>  <ROTATABLE_BONDCOUNT>
9

>  <HBDScore>
0.8333333333333334

>  <dipole>
7.85

>  <logD>
3.37

>  <MPOScore>
3.588333333333334

>  <logDScore>
0.31499999999999995

>  <MW>
530.45

>  <charge_dist(7.4)>
0.81

>  <CNS>
FALSE

>  <ArRings>
3

>  <HBD>
1

>  <BALABAN_INDEX>
1.18

>  <bpKa>
8.03

>  <TPSAScore>
1.0

>  <MWScore>
0.0

>  <bpKaScore>
0.9850000000000003

>  <logPScore>
0.45500000000000007

>  <MPO_area>
38.81

>  <TPSA>
82.88

>  <logP>
4.09

$$$$

  Mrv1722703221715202D          

 31 35  0  0  0  0            999 V2000
    0.0000    0.0000    0.0000 O   0  0  0  0  0  0  0  0  0  0  0  0
   -0.8250   -0.0322    0.0000 C   0  0  0  0  0  0  0  0  0  0  0  0
   -1.2762    0.6639    0.0000 C   0  0  0  0  0  0  0  0  0  0  0  0
   -1.2053   -0.7541    0.0000 C   0  0  0  0  0  0  0  0  0  0  0  0
   -2.1012    0.6317    0.0000 C   0  0  0  0  0  0  0  0  0  0  0  0
   -2.0303   -0.7863    0.0000 C   0  0  0  0  0  0  0  0  0  0  0  0
   -2.4815   -0.0902    0.0000 C   0  0  2  0  0  0  0  0  0  0  0  0
   -2.5524    1.3278    0.0000 C   0  0  0  0  0  0  0  0  0  0  0  0
   -3.3065   -0.1224    0.0000 C   0  0  1  0  0  0  0  0  0  0  0  0
   -2.8618   -0.8121    0.0000 C   0  0  0  0  0  0  0  0  0  0  0  0
   -3.3774    1.2955    0.0000 C   0  0  0  0  0  0  0  0  0  0  0  0
   -3.6868   -0.8443    0.0000 C   0  0  1  0  0  0  0  0  0  0  0  0
   -3.7577    0.5737    0.0000 C   0  0  1  0  0  0  0  0  0  0  0  0
   -3.2485   -1.5275    0.0000 O   0  0  0  0  0  0  0  0  0  0  0  0
   -4.5118   -0.8766    0.0000 C   0  0  0  0  0  0  0  0  0  0  0  0
   -4.5827    0.5414    0.0000 C   0  0  1  0  0  0  0  0  0  0  0  0
   -4.9630   -0.1804    0.0000 C   0  0  1  0  0  0  0  0  0  0  0  0
   -5.1628    1.1280    0.0000 C   0  0  0  0  0  0  0  0  0  0  0  0
   -5.7751   -0.0451    0.0000 C   0  0  1  0  0  0  0  0  0  0  0  0
   -5.1112   -0.5865    0.0000 C   0  0  0  0  0  0  0  0  0  0  0  0
   -5.9040    0.7670    0.0000 C   0  0  2  0  0  0  0  0  0  0  0  0
   -6.5163   -0.4061    0.0000 O   0  0  0  0  0  0  0  0  0  0  0  0
   -5.6591   -0.8508    0.0000 C   0  0  0  0  0  0  0  0  0  0  0  0
   -6.7161    0.9023    0.0000 O   0  0  0  0  0  0  0  0  0  0  0  0
   -7.0964    0.1804    0.0000 C   0  0  1  0  0  0  0  0  0  0  0  0
   -5.2595   -1.0055    0.0000 O   0  0  0  0  0  0  0  0  0  0  0  0
   -6.3037   -1.3600    0.0000 C   0  0  0  0  0  0  0  0  0  0  0  0
   -7.9150    0.0645    0.0000 C   0  0  0  0  0  0  0  0  0  0  0  0
   -6.1876   -2.1657    0.0000 O   0  0  0  0  0  0  0  0  0  0  0  0
   -8.4371    0.7090    0.0000 C   0  0  0  0  0  0  0  0  0  0  0  0
   -9.2557    0.5930    0.0000 C   0  0  0  0  0  0  0  0  0  0  0  0
  1  2  2  0  0  0  0
  2  3  1  0  0  0  0
  2  4  1  0  0  0  0
  3  5  2  0  0  0  0
  4  6  2  0  0  0  0
  5  7  1  0  0  0  0
  5  8  1  0  0  0  0
  7  9  1  0  0  0  0
  7 10  1  1  0  0  0
  8 11  1  0  0  0  0
  9 12  1  1  0  0  0
  9 13  1  0  0  0  0
 12 14  1  1  0  0  0
 12 15  1  0  0  0  0
 13 16  1  0  0  0  0
 15 17  1  0  0  0  0
 16 18  1  1  0  0  0
 17 19  1  0  0  0  0
 17 20  1  1  0  0  0
 18 21  1  0  0  0  0
 19 22  1  0  0  0  0
 19 23  1  1  0  0  0
 21 24  1  6  0  0  0
 22 25  1  0  0  0  0
 23 26  2  0  0  0  0
 23 27  1  0  0  0  0
 25 28  1  6  0  0  0
 27 29  1  0  0  0  0
 28 30  1  0  0  0  0
 30 31  1  0  0  0  0
  6  7  1  0  0  0  0
 13 11  1  6  0  0  0
 16 17  1  0  0  0  0
 19 21  1  0  0  0  0
 24 25  1  0  0  0  0
M  END

>  <name>
Budesonide

>  <ROTATABLE_BONDCOUNT>
4

>  <HBDScore>
0.5

>  <dipole>
4.05

>  <logD>
2.73

>  <MPOScore>
4.529135714285714

>  <logDScore>
0.635

>  <MW>
430.541

>  <charge_dist(7.4)>
-0.00

>  <CNS>
FALSE

>  <ArRings>
0

>  <HBD>
2

>  <BALABAN_INDEX>
1.29

>  <bpKa>
-2.85

>  <TPSAScore>
0.8979999999999999

>  <MWScore>
0.49613571428571435

>  <bpKaScore>
1.0

>  <logPScore>
1.0

>  <MPO_area>
58.83

>  <TPSA>
93.06

>  <logP>
2.73

$$$$

  Mrv1722703221715202D          

 19 20  0  0  0  0            999 V2000
    0.0000    0.0000    0.0000 O   0  0  0  0  0  0  0  0  0  0  0  0
    0.6123    0.5478    0.0000 C   0  0  0  0  0  0  0  0  0  0  0  0
   -0.7154    0.4254    0.0000 C   0  0  0  0  0  0  0  0  0  0  0  0
    1.4243    0.4576    0.0000 C   0  0  0  0  0  0  0  0  0  0  0  0
    0.2836    1.3148    0.0000 C   0  0  0  0  0  0  0  0  0  0  0  0
   -0.5414    1.2374    0.0000 C   0  0  0  0  0  0  0  0  0  0  0  0
   -1.4823    0.1096    0.0000 C   0  0  1  0  0  0  0  0  0  0  0  0
    1.9141    1.1215    0.0000 C   0  0  0  0  0  0  0  0  0  0  0  0
    1.7401   -0.2965    0.0000 C   0  0  0  0  0  0  0  0  0  0  0  0
    0.7734    1.9786    0.0000 C   0  0  0  0  0  0  0  0  0  0  0  0
   -1.5855   -0.7025    0.0000 O   0  0  0  0  0  0  0  0  0  0  0  0
   -2.1462    0.6123    0.0000 C   0  0  0  0  0  0  0  0  0  0  0  0
    1.5855    1.8884    0.0000 C   0  0  0  0  0  0  0  0  0  0  0  0
    2.5522   -0.3867    0.0000 C   0  0  0  0  0  0  0  0  0  0  0  0
   -2.9131    0.2965    0.0000 N   0  0  0  0  0  0  0  0  0  0  0  0
   -3.5770    0.7992    0.0000 C   0  0  0  0  0  0  0  0  0  0  0  0
   -4.0797    0.1482    0.0000 C   0  0  0  0  0  0  0  0  0  0  0  0
   -3.0871    1.4630    0.0000 C   0  0  0  0  0  0  0  0  0  0  0  0
   -4.2408    1.3019    0.0000 C   0  0  0  0  0  0  0  0  0  0  0  0
  1  2  1  0  0  0  0
  1  3  1  0  0  0  0
  2  4  2  0  0  0  0
  2  5  1  0  0  0  0
  3  6  2  0  0  0  0
  3  7  1  0  0  0  0
  4  8  1  0  0  0  0
  4  9  1  0  0  0  0
  5 10  2  0  0  0  0
  7 11  1  1  0  0  0
  7 12  1  0  0  0  0
  8 13  2  0  0  0  0
  9 14  1  0  0  0  0
 12 15  1  0  0  0  0
 15 16  1  0  0  0  0
 16 17  1  0  0  0  0
 16 18  1  0  0  0  0
 16 19  1  0  0  0  0
  5  6  1  0  0  0  0
 10 13  1  0  0  0  0
M  END

>  <name>
Bufuralol

>  <ROTATABLE_BONDCOUNT>
5

>  <HBDScore>
0.5

>  <dipole>
4.28

>  <logD>
1.16

>  <MPOScore>
4.88

>  <logDScore>
1.0

>  <MW>
261.365

>  <charge_dist(7.4)>
0.99

>  <CNS>
FALSE

>  <ArRings>
2

>  <HBD>
2

>  <BALABAN_INDEX>
1.67

>  <bpKa>
9.24

>  <TPSAScore>
1.0

>  <MWScore>
1.0

>  <bpKaScore>
0.3799999999999999

>  <logPScore>
1.0

>  <MPO_area>
67.83

>  <TPSA>
45.40

>  <logP>
2.99

$$$$

  Mrv1722703221715202D          

 14 13  0  0  0  0            999 V2000
    0.0000    0.0000    0.0000 S   0  0  0  0  0  0  0  0  0  0  0  0
    0.3489    0.7571    0.0000 O   0  0  0  0  0  0  0  0  0  0  0  0
   -0.3608   -0.7452    0.0000 O   0  0  0  0  0  0  0  0  0  0  0  0
    0.7452   -0.3489    0.0000 O   0  0  0  0  0  0  0  0  0  0  0  0
   -0.7571    0.3608    0.0000 C   0  0  0  0  0  0  0  0  0  0  0  0
    1.4195    0.1301    0.0000 C   0  0  0  0  0  0  0  0  0  0  0  0
    2.1647   -0.2188    0.0000 C   0  0  0  0  0  0  0  0  0  0  0  0
    2.8389    0.2602    0.0000 C   0  0  0  0  0  0  0  0  0  0  0  0
    3.5842   -0.0887    0.0000 C   0  0  0  0  0  0  0  0  0  0  0  0
    4.2584    0.3904    0.0000 O   0  0  0  0  0  0  0  0  0  0  0  0
    5.0036    0.0414    0.0000 S   0  0  0  0  0  0  0  0  0  0  0  0
    5.3526    0.7984    0.0000 O   0  0  0  0  0  0  0  0  0  0  0  0
    4.6429   -0.7038    0.0000 O   0  0  0  0  0  0  0  0  0  0  0  0
    5.7489   -0.3076    0.0000 C   0  0  0  0  0  0  0  0  0  0  0  0
  1  2  2  0  0  0  0
  1  3  2  0  0  0  0
  1  4  1  0  0  0  0
  1  5  1  0  0  0  0
  4  6  1  0  0  0  0
  6  7  1  0  0  0  0
  7  8  1  0  0  0  0
  8  9  1  0  0  0  0
  9 10  1  0  0  0  0
 10 11  1  0  0  0  0
 11 12  2  0  0  0  0
 11 13  2  0  0  0  0
 11 14  1  0  0  0  0
M  END

>  <name>
Busulfan

>  <ROTATABLE_BONDCOUNT>
7

>  <HBDScore>
1.0

>  <dipole>
0.00

>  <logD>
-0.76

>  <MPOScore>
6.0

>  <logDScore>
1.0

>  <MW>
246.29

>  <charge_dist(7.4)>
0.00

>  <CNS>
FALSE

>  <ArRings>
0

>  <HBD>
0

>  <BALABAN_INDEX>
3.23

>  <bpKa>
0.0

>  <TPSAScore>
1.0

>  <MWScore>
1.0

>  <bpKaScore>
1.0

>  <logPScore>
1.0

>  <MPO_area>
100.0

>  <TPSA>
86.74

>  <logP>
-0.76

$$$$

  Mrv1722703221715202D          

 37 41  0  0  0  0            999 V2000
    0.0000    0.0000    0.0000 F   0  0  0  0  0  0  0  0  0  0  0  0
   -0.3419   -0.7417    0.0000 C   0  0  0  0  0  0  0  0  0  0  0  0
    0.1354   -1.3997    0.0000 C   0  0  0  0  0  0  0  0  0  0  0  0
   -1.1675   -0.8192    0.0000 C   0  0  0  0  0  0  0  0  0  0  0  0
   -0.2064   -2.1414    0.0000 C   0  0  0  0  0  0  0  0  0  0  0  0
   -1.5093   -1.5609    0.0000 C   0  0  0  0  0  0  0  0  0  0  0  0
   -1.0320   -2.2188    0.0000 C   0  0  0  0  0  0  0  0  0  0  0  0
   -1.3738   -2.9605    0.0000 N   0  0  0  0  0  0  0  0  0  0  0  0
   -2.1994   -3.0379    0.0000 C   0  0  0  0  0  0  0  0  0  0  0  0
   -2.6896   -2.3671    0.0000 O   0  0  0  0  0  0  0  0  0  0  0  0
   -2.5413   -3.7797    0.0000 C   0  0  0  0  0  0  0  0  0  0  0  0
   -3.3476   -3.5733    0.0000 C   0  0  0  0  0  0  0  0  0  0  0  0
   -1.8640   -4.2312    0.0000 C   0  0  0  0  0  0  0  0  0  0  0  0
   -2.6058   -4.5924    0.0000 C   0  0  0  0  0  0  0  0  0  0  0  0
   -3.9216   -4.1602    0.0000 O   0  0  0  0  0  0  0  0  0  0  0  0
   -3.5797   -2.7799    0.0000 N   0  0  0  0  0  0  0  0  0  0  0  0
   -4.3859   -2.5735    0.0000 C   0  0  0  0  0  0  0  0  0  0  0  0
   -4.6181   -1.7802    0.0000 C   0  0  0  0  0  0  0  0  0  0  0  0
   -4.9600   -3.1605    0.0000 C   0  0  0  0  0  0  0  0  0  0  0  0
   -5.4244   -1.5738    0.0000 C   0  0  0  0  0  0  0  0  0  0  0  0
   -5.7663   -2.9541    0.0000 C   0  0  0  0  0  0  0  0  0  0  0  0
   -5.9985   -2.1607    0.0000 C   0  0  0  0  0  0  0  0  0  0  0  0
   -6.8047   -1.9543    0.0000 O   0  0  0  0  0  0  0  0  0  0  0  0
   -7.3787   -2.5413    0.0000 C   0  0  0  0  0  0  0  0  0  0  0  0
   -8.1850   -2.3349    0.0000 C   0  0  0  0  0  0  0  0  0  0  0  0
   -7.1594   -3.3217    0.0000 C   0  0  0  0  0  0  0  0  0  0  0  0
   -8.7590   -2.9218    0.0000 C   0  0  0  0  0  0  0  0  0  0  0  0
   -8.4172   -1.5416    0.0000 C   0  0  0  0  0  0  0  0  0  0  0  0
   -7.7335   -3.9087    0.0000 C   0  0  0  0  0  0  0  0  0  0  0  0
   -8.5398   -3.7023    0.0000 N   0  0  0  0  0  0  0  0  0  0  0  0
   -9.5653   -2.7154    0.0000 C   0  0  0  0  0  0  0  0  0  0  0  0
   -9.2234   -1.3351    0.0000 C   0  0  0  0  0  0  0  0  0  0  0  0
   -9.7975   -1.9221    0.0000 C   0  0  0  0  0  0  0  0  0  0  0  0
   -9.4556   -0.5418    0.0000 O   0  0  0  0  0  0  0  0  0  0  0  0
  -10.6037   -1.7157    0.0000 O   0  0  0  0  0  0  0  0  0  0  0  0
   -8.8945    0.0580    0.0000 C   0  0  0  0  0  0  0  0  0  0  0  0
  -11.1778   -2.3026    0.0000 C   0  0  0  0  0  0  0  0  0  0  0  0
  1  2  1  0  0  0  0
  2  3  2  0  0  0  0
  2  4  1  0  0  0  0
  3  5  1  0  0  0  0
  4  6  2  0  0  0  0
  5  7  2  0  0  0  0
  7  8  1  0  0  0  0
  8  9  1  0  0  0  0
  9 10  2  0  0  0  0
  9 11  1  0  0  0  0
 11 12  1  0  0  0  0
 11 13  1  0  0  0  0
 11 14  1  0  0  0  0
 12 15  2  0  0  0  0
 12 16  1  0  0  0  0
 16 17  1  0  0  0  0
 17 18  2  0  0  0  0
 17 19  1  0  0  0  0
 18 20  1  0  0  0  0
 19 21  2  0  0  0  0
 20 22  2  0  0  0  0
 22 23  1  0  0  0  0
 23 24  1  0  0  0  0
 24 25  1  0  0  0  0
 24 26  2  0  0  0  0
 25 27  2  0  0  0  0
 25 28  1  0  0  0  0
 26 29  1  0  0  0  0
 27 30  1  0  0  0  0
 27 31  1  0  0  0  0
 28 32  2  0  0  0  0
 31 33  2  0  0  0  0
 32 34  1  0  0  0  0
 33 35  1  0  0  0  0
 34 36  1  0  0  0  0
 35 37  1  0  0  0  0
  6  7  1  0  0  0  0
 13 14  1  0  0  0  0
 21 22  1  0  0  0  0
 29 30  2  0  0  0  0
 32 33  1  0  0  0  0
M  END

>  <name>
Cabozantinib

>  <ROTATABLE_BONDCOUNT>
8

>  <HBDScore>
0.5

>  <dipole>
4.47

>  <logD>
4.65

>  <MPOScore>
2.3773333333333335

>  <logDScore>
0.0

>  <MW>
501.514

>  <charge_dist(7.4)>
0.03

>  <CNS>
FALSE

>  <ArRings>
4

>  <HBD>
2

>  <BALABAN_INDEX>
0.93

>  <bpKa>
5.9

>  <TPSAScore>
0.7073333333333334

>  <MWScore>
0.0

>  <bpKaScore>
1.0

>  <logPScore>
0.16999999999999993

>  <MPO_area>
19.1

>  <TPSA>
98.78

>  <logP>
4.66

$$$$

  Mrv1722703221715202D          

 31 34  0  0  0  0            999 V2000
    0.0000    0.0000    0.0000 S   0  0  0  0  0  0  0  0  0  0  0  0
    0.2196    0.7944    0.0000 C   0  0  0  0  0  0  0  0  0  0  0  0
   -0.8267   -0.0193    0.0000 C   0  0  0  0  0  0  0  0  0  0  0  0
    0.9817    1.0786    0.0000 C   0  0  0  0  0  0  0  0  0  0  0  0
   -0.4650    1.2595    0.0000 C   0  0  0  0  0  0  0  0  0  0  0  0
   -1.1109    0.7557    0.0000 C   0  0  0  0  0  0  0  0  0  0  0  0
   -1.2918   -0.6911    0.0000 C   0  0  0  0  0  0  0  0  0  0  0  0
    1.6018    0.5554    0.0000 C   0  0  0  0  0  0  0  0  0  0  0  0
    1.1174    1.8924    0.0000 C   0  0  0  0  0  0  0  0  0  0  0  0
   -2.1185   -0.6265    0.0000 C   0  0  0  0  0  0  0  0  0  0  0  0
    2.3639    0.8397    0.0000 C   0  0  0  0  0  0  0  0  0  0  0  0
    1.8795    2.1766    0.0000 C   0  0  0  0  0  0  0  0  0  0  0  0
   -2.5835   -1.2982    0.0000 C   0  0  0  0  0  0  0  0  0  0  0  0
   -2.4866    0.1163    0.0000 C   0  0  0  0  0  0  0  0  0  0  0  0
    2.4995    1.6534    0.0000 C   0  0  0  0  0  0  0  0  0  0  0  0
   -3.4102   -1.2336    0.0000 C   0  0  0  0  0  0  0  0  0  0  0  0
   -2.2283   -2.0281    0.0000 C   0  0  0  0  0  0  0  0  0  0  0  0
   -3.3134    0.1808    0.0000 C   0  0  0  0  0  0  0  0  0  0  0  0
    3.2617    1.9376    0.0000 F   0  0  0  0  0  0  0  0  0  0  0  0
   -3.7784   -0.4909    0.0000 C   0  0  0  0  0  0  0  0  0  0  0  0
   -3.6815    0.9236    0.0000 C   0  0  1  0  0  0  0  0  0  0  0  0
   -4.5082    0.9882    0.0000 O   0  0  0  0  0  0  0  0  0  0  0  0
   -3.2294    1.6083    0.0000 C   0  0  1  0  0  0  0  0  0  0  0  0
   -4.8764    1.7309    0.0000 C   0  0  2  0  0  0  0  0  0  0  0  0
   -2.4156    1.5566    0.0000 O   0  0  0  0  0  0  0  0  0  0  0  0
   -3.5975    2.3510    0.0000 C   0  0  1  0  0  0  0  0  0  0  0  0
   -4.4243    2.4156    0.0000 C   0  0  1  0  0  0  0  0  0  0  0  0
   -5.7031    1.7956    0.0000 C   0  0  0  0  0  0  0  0  0  0  0  0
   -3.1454    3.0356    0.0000 O   0  0  0  0  0  0  0  0  0  0  0  0
   -4.7924    3.1584    0.0000 O   0  0  0  0  0  0  0  0  0  0  0  0
   -6.1681    1.1238    0.0000 O   0  0  0  0  0  0  0  0  0  0  0  0
  1  2  1  0  0  0  0
  1  3  1  0  0  0  0
  2  4  1  0  0  0  0
  2  5  2  0  0  0  0
  3  6  2  0  0  0  0
  3  7  1  0  0  0  0
  4  8  2  0  0  0  0
  4  9  1  0  0  0  0
  7 10  1  0  0  0  0
  8 11  1  0  0  0  0
  9 12  2  0  0  0  0
 10 13  2  0  0  0  0
 10 14  1  0  0  0  0
 11 15  2  0  0  0  0
 13 16  1  0  0  0  0
 13 17  1  0  0  0  0
 14 18  2  0  0  0  0
 15 19  1  0  0  0  0
 16 20  2  0  0  0  0
 21 18  1  1  0  0  0
 21 22  1  0  0  0  0
 21 23  1  0  0  0  0
 22 24  1  0  0  0  0
 23 25  1  6  0  0  0
 23 26  1  0  0  0  0
 24 27  1  0  0  0  0
 24 28  1  1  0  0  0
 26 29  1  1  0  0  0
 27 30  1  6  0  0  0
 28 31  1  0  0  0  0
  5  6  1  0  0  0  0
 12 15  1  0  0  0  0
 18 20  1  0  0  0  0
 26 27  1  0  0  0  0
M  END

>  <name>
Canagliflozin

>  <ROTATABLE_BONDCOUNT>
5

>  <HBDScore>
0.0

>  <dipole>
12.10

>  <logD>
3.52

>  <MPOScore>
3.371285714285714

>  <logDScore>
0.24

>  <MW>
444.52

>  <charge_dist(7.4)>
-0.00

>  <CNS>
FALSE

>  <ArRings>
3

>  <HBD>
4

>  <BALABAN_INDEX>
1.16

>  <bpKa>
-2.98

>  <TPSAScore>
0.9949999999999998

>  <MWScore>
0.39628571428571446

>  <bpKaScore>
1.0

>  <logPScore>
0.74

>  <MPO_area>
35.33

>  <TPSA>
90.15

>  <logP>
3.52

$$$$

  Mrv1722703221715202D          

 25 26  0  0  0  0            999 V2000
    0.0000    0.0000    0.0000 F   0  0  0  0  0  0  0  0  0  0  0  0
    0.1872    0.8005    0.0000 C   0  0  0  0  0  0  0  0  0  0  0  0
   -0.4132    1.3750    0.0000 C   0  0  0  0  0  0  0  0  0  0  0  0
    0.9683    1.0393    0.0000 C   0  0  0  0  0  0  0  0  0  0  0  0
   -0.2259    2.1754    0.0000 N   0  0  0  0  0  0  0  0  0  0  0  0
   -1.2071    1.1490    0.0000 N   0  0  0  0  0  0  0  0  0  0  0  0
    1.1555    1.8398    0.0000 N   0  0  0  0  0  0  0  0  0  0  0  0
    0.5551    2.4143    0.0000 C   0  0  0  0  0  0  0  0  0  0  0  0
   -1.8074    1.7235    0.0000 C   0  0  0  0  0  0  0  0  0  0  0  0
    1.9365    2.0786    0.0000 C   0  0  1  0  0  0  0  0  0  0  0  0
    0.7424    3.2147    0.0000 O   0  0  0  0  0  0  0  0  0  0  0  0
   -1.6202    2.5240    0.0000 O   0  0  0  0  0  0  0  0  0  0  0  0
   -2.6014    1.4976    0.0000 O   0  0  0  0  0  0  0  0  0  0  0  0
    2.2077    2.8596    0.0000 O   0  0  0  0  0  0  0  0  0  0  0  0
    2.5821    1.5816    0.0000 C   0  0  1  0  0  0  0  0  0  0  0  0
   -3.2018    2.0721    0.0000 C   0  0  0  0  0  0  0  0  0  0  0  0
    3.0210    2.8403    0.0000 C   0  0  2  0  0  0  0  0  0  0  0  0
    2.5498    0.7681    0.0000 O   0  0  0  0  0  0  0  0  0  0  0  0
    3.2534    2.0528    0.0000 C   0  0  2  0  0  0  0  0  0  0  0  0
   -3.9958    1.8462    0.0000 C   0  0  0  0  0  0  0  0  0  0  0  0
    3.5181    3.4987    0.0000 C   0  0  0  0  0  0  0  0  0  0  0  0
    4.0216    1.7817    0.0000 O   0  0  0  0  0  0  0  0  0  0  0  0
   -4.5961    2.4207    0.0000 C   0  0  0  0  0  0  0  0  0  0  0  0
   -5.3901    2.1947    0.0000 C   0  0  0  0  0  0  0  0  0  0  0  0
   -5.9904    2.7693    0.0000 C   0  0  0  0  0  0  0  0  0  0  0  0
  1  2  1  0  0  0  0
  2  3  1  0  0  0  0
  2  4  2  0  0  0  0
  3  5  2  0  0  0  0
  3  6  1  0  0  0  0
  4  7  1  0  0  0  0
  5  8  1  0  0  0  0
  6  9  1  0  0  0  0
 10  7  1  1  0  0  0
  8 11  2  0  0  0  0
  9 12  2  0  0  0  0
  9 13  1  0  0  0  0
 10 14  1  0  0  0  0
 10 15  1  0  0  0  0
 13 16  1  0  0  0  0
 14 17  1  0  0  0  0
 15 18  1  6  0  0  0
 15 19  1  0  0  0  0
 16 20  1  0  0  0  0
 17 21  1  1  0  0  0
 19 22  1  6  0  0  0
 20 23  1  0  0  0  0
 23 24  1  0  0  0  0
 24 25  1  0  0  0  0
  7  8  1  0  0  0  0
 17 19  1  0  0  0  0
M  END

>  <name>
Capecitabine

>  <ROTATABLE_BONDCOUNT>
7

>  <HBDScore>
0.16666666666666674

>  <dipole>
8.57

>  <logD>
0.15

>  <MPOScore>
4.166666666666667

>  <logDScore>
1.0

>  <MW>
359.354

>  <charge_dist(7.4)>
-0.86

>  <CNS>
FALSE

>  <ArRings>
1

>  <HBD>
3

>  <BALABAN_INDEX>
1.69

>  <bpKa>
-3.63

>  <TPSAScore>
0.0

>  <MWScore>
1.0

>  <bpKaScore>
1.0

>  <logPScore>
1.0

>  <MPO_area>
52.78

>  <TPSA>
120.69

>  <logP>
0.77

$$$$

  Mrv1722703221715202D          

 26 28  0  0  0  0            999 V2000
    0.0000    0.0000    0.0000 S   0  0  0  0  0  0  0  0  0  0  0  0
   -0.7015   -0.4416    0.0000 C   0  0  0  0  0  0  0  0  0  0  0  0
    0.6365   -0.5196    0.0000 C   0  0  2  0  0  0  0  0  0  0  0  0
   -0.4936   -1.2341    0.0000 C   0  0  2  0  0  0  0  0  0  0  0  0
   -1.4809   -0.7339    0.0000 C   0  0  0  0  0  0  0  0  0  0  0  0
   -1.0847    0.3053    0.0000 C   0  0  0  0  0  0  0  0  0  0  0  0
    0.3312   -1.2861    0.0000 N   0  0  0  0  0  0  0  0  0  0  0  0
    1.4030   -0.8119    0.0000 C   0  0  2  0  0  0  0  0  0  0  0  0
   -1.0262   -1.8706    0.0000 C   0  0  0  0  0  0  0  0  0  0  0  0
    1.0977   -1.5783    0.0000 C   0  0  0  0  0  0  0  0  0  0  0  0
    2.1563   -0.4676    0.0000 N   0  0  0  0  0  0  0  0  0  0  0  0
   -0.7339   -2.6370    0.0000 O   0  0  0  0  0  0  0  0  0  0  0  0
   -1.8511   -1.7342    0.0000 O   0  0  0  0  0  0  0  0  0  0  0  0
    1.4289   -2.3317    0.0000 O   0  0  0  0  0  0  0  0  0  0  0  0
    2.8189   -0.9483    0.0000 C   0  0  0  0  0  0  0  0  0  0  0  0
    2.7214   -1.7667    0.0000 O   0  0  0  0  0  0  0  0  0  0  0  0
    3.5723   -0.6040    0.0000 C   0  0  0  0  0  0  0  0  0  0  0  0
    4.2348   -1.0847    0.0000 C   0  0  0  0  0  0  0  0  0  0  0  0
    3.6567    0.2273    0.0000 C   0  0  0  0  0  0  0  0  0  0  0  0
    4.1374   -1.9031    0.0000 C   0  0  0  0  0  0  0  0  0  0  0  0
    4.9882   -0.7404    0.0000 C   0  0  0  0  0  0  0  0  0  0  0  0
    2.9813    0.7209    0.0000 O   0  0  0  0  0  0  0  0  0  0  0  0
    4.4102    0.5715    0.0000 O   0  0  0  0  0  0  0  0  0  0  0  0
    4.7999   -2.3837    0.0000 C   0  0  0  0  0  0  0  0  0  0  0  0
    5.6507   -1.2211    0.0000 C   0  0  0  0  0  0  0  0  0  0  0  0
    5.5533   -2.0394    0.0000 C   0  0  0  0  0  0  0  0  0  0  0  0
  1  2  1  0  0  0  0
  3  1  1  1  0  0  0
  2  4  1  0  0  0  0
  2  5  1  0  0  0  0
  2  6  1  0  0  0  0
  3  7  1  0  0  0  0
  3  8  1  0  0  0  0
  4  9  1  6  0  0  0
  7 10  1  0  0  0  0
  8 11  1  1  0  0  0
  9 12  2  0  0  0  0
  9 13  1  0  0  0  0
 10 14  2  0  0  0  0
 11 15  1  0  0  0  0
 15 16  2  0  0  0  0
 15 17  1  0  0  0  0
 17 18  1  0  0  0  0
 17 19  1  0  0  0  0
 18 20  2  0  0  0  0
 18 21  1  0  0  0  0
 19 22  2  0  0  0  0
 19 23  1  0  0  0  0
 20 24  1  0  0  0  0
 21 25  2  0  0  0  0
 24 26  2  0  0  0  0
  4  7  1  0  0  0  0
  8 10  1  0  0  0  0
 25 26  1  0  0  0  0
M  END

>  <name>
Carbenicillin

>  <ROTATABLE_BONDCOUNT>
5

>  <HBDScore>
0.16666666666666674

>  <dipole>
7.41

>  <logD>
-5.91

>  <MPOScore>
4.035238095238095

>  <logDScore>
1.0

>  <MW>
378.40

>  <charge_dist(7.4)>
-2.00

>  <CNS>
FALSE

>  <ArRings>
1

>  <HBD>
3

>  <BALABAN_INDEX>
1.67

>  <bpKa>
-6.32

>  <TPSAScore>
0.0

>  <MWScore>
0.8685714285714288

>  <bpKaScore>
1.0

>  <logPScore>
1.0

>  <MPO_area>
50.22

>  <TPSA>
124.01

>  <logP>
0.82

$$$$

  Mrv1722703221715202D          

 16 16  0  0  0  0            999 V2000
    0.0000    0.0000    0.0000 O   0  0  0  0  0  0  0  0  0  0  0  0
   -0.2551    0.7973    0.0000 C   0  0  0  0  0  0  0  0  0  0  0  0
   -1.0715    0.9886    0.0000 O   0  0  0  0  0  0  0  0  0  0  0  0
    0.2998    1.4159    0.0000 C   0  0  1  0  0  0  0  0  0  0  0  0
    0.8547    2.0347    0.0000 N   0  0  0  0  0  0  0  0  0  0  0  0
    0.9057    0.8610    0.0000 C   0  0  0  0  0  0  0  0  0  0  0  0
   -0.3189    1.9836    0.0000 C   0  0  0  0  0  0  0  0  0  0  0  0
    0.5996    2.8320    0.0000 N   0  0  0  0  0  0  0  0  0  0  0  0
    1.6902    1.1162    0.0000 C   0  0  0  0  0  0  0  0  0  0  0  0
    2.2962    0.5613    0.0000 C   0  0  0  0  0  0  0  0  0  0  0  0
    1.8688    1.9326    0.0000 C   0  0  0  0  0  0  0  0  0  0  0  0
    3.0807    0.8164    0.0000 C   0  0  0  0  0  0  0  0  0  0  0  0
    2.6534    2.1877    0.0000 C   0  0  0  0  0  0  0  0  0  0  0  0
    3.6866    0.2615    0.0000 O   0  0  0  0  0  0  0  0  0  0  0  0
    3.2593    1.6328    0.0000 C   0  0  0  0  0  0  0  0  0  0  0  0
    4.0438    1.8879    0.0000 O   0  0  0  0  0  0  0  0  0  0  0  0
  1  2  2  0  0  0  0
  2  3  1  0  0  0  0
  2  4  1  0  0  0  0
  4  5  1  1  0  0  0
  4  6  1  0  0  0  0
  4  7  1  0  0  0  0
  5  8  1  0  0  0  0
  6  9  1  0  0  0  0
  9 10  2  0  0  0  0
  9 11  1  0  0  0  0
 10 12  1  0  0  0  0
 11 13  2  0  0  0  0
 12 14  1  0  0  0  0
 12 15  2  0  0  0  0
 15 16  1  0  0  0  0
 13 15  1  0  0  0  0
M  END

>  <name>
Carbidopa

>  <ROTATABLE_BONDCOUNT>
4

>  <HBDScore>
0.0

>  <dipole>
2.71

>  <logD>
-2.53

>  <MPOScore>
4.139666666666667

>  <logDScore>
1.0

>  <MW>
226.232

>  <charge_dist(7.4)>
-0.98

>  <CNS>
FALSE

>  <ArRings>
1

>  <HBD>
5

>  <BALABAN_INDEX>
2.53

>  <bpKa>
5.66

>  <TPSAScore>
0.1396666666666666

>  <MWScore>
1.0

>  <bpKaScore>
1.0

>  <logPScore>
1.0

>  <MPO_area>
52.33

>  <TPSA>
115.81

>  <logP>
-1.21

$$$$

  Mrv1722703221715202D          

 13 12  0  0  0  0            999 V2000
    0.0000    0.0000    0.0000 O   0  0  0  0  0  0  0  0  0  0  0  0
   -0.5233   -0.6318    0.0000 C   0  0  0  0  0  0  0  0  0  0  0  0
   -1.3401   -0.4978    0.0000 N   0  0  0  0  0  0  0  0  0  0  0  0
   -0.2361   -1.3912    0.0000 N   0  0  0  0  0  0  0  0  0  0  0  0
   -1.6401    0.2744    0.0000 C   0  0  2  0  0  0  0  0  0  0  0  0
   -1.1295    0.9189    0.0000 C   0  0  0  0  0  0  0  0  0  0  0  0
   -2.4569    0.4084    0.0000 C   0  0  0  0  0  0  0  0  0  0  0  0
   -1.4295    1.6912    0.0000 O   0  0  0  0  0  0  0  0  0  0  0  0
   -0.3254    0.7977    0.0000 O   0  0  0  0  0  0  0  0  0  0  0  0
   -2.9803   -0.2234    0.0000 C   0  0  0  0  0  0  0  0  0  0  0  0
   -3.7971   -0.0893    0.0000 C   0  0  0  0  0  0  0  0  0  0  0  0
   -4.0971    0.6828    0.0000 O   0  0  0  0  0  0  0  0  0  0  0  0
   -4.3204   -0.7211    0.0000 O   0  0  0  0  0  0  0  0  0  0  0  0
  1  2  2  0  0  0  0
  2  3  1  0  0  0  0
  2  4  1  0  0  0  0
  5  3  1  1  0  0  0
  5  6  1  0  0  0  0
  5  7  1  0  0  0  0
  6  8  2  0  0  0  0
  6  9  1  0  0  0  0
  7 10  1  0  0  0  0
 10 11  1  0  0  0  0
 11 12  2  0  0  0  0
 11 13  1  0  0  0  0
M  END

>  <name>
Carglumic_acid

>  <ROTATABLE_BONDCOUNT>
5

>  <HBDScore>
0.0

>  <dipole>
4.26

>  <logD>
-7.92

>  <MPOScore>
4.0

>  <logDScore>
1.0

>  <MW>
190.155

>  <charge_dist(7.4)>
-2.00

>  <CNS>
FALSE

>  <ArRings>
0

>  <HBD>
4

>  <BALABAN_INDEX>
3.81

>  <bpKa>
-2.27

>  <TPSAScore>
0.0

>  <MWScore>
1.0

>  <bpKaScore>
1.0

>  <logPScore>
1.0

>  <MPO_area>
50.0

>  <TPSA>
129.72

>  <logP>
-1.45

$$$$

  Mrv1722703221715202D          

 19 21  0  0  0  0            999 V2000
    0.0000    0.0000    0.0000 Cl  0  0  0  0  0  0  0  0  0  0  0  0
    0.5768   -0.5899    0.0000 C   0  0  0  0  0  0  0  0  0  0  0  0
    1.3764   -0.3736    0.0000 C   0  0  0  0  0  0  0  0  0  0  0  0
    0.3474   -1.3830    0.0000 C   0  0  0  0  0  0  0  0  0  0  0  0
    1.9532   -0.9635    0.0000 C   0  0  0  0  0  0  0  0  0  0  0  0
    0.9242   -1.9728    0.0000 C   0  0  0  0  0  0  0  0  0  0  0  0
    1.7237   -1.7565    0.0000 C   0  0  0  0  0  0  0  0  0  0  0  0
    2.7790   -0.9242    0.0000 C   0  0  0  0  0  0  0  0  0  0  0  0
    2.4120   -2.2088    0.0000 N   0  0  0  0  0  2  0  0  0  0  0  0
    3.0608   -1.6976    0.0000 C   0  0  0  0  0  0  0  0  0  0  0  0
    3.3033   -0.2753    0.0000 C   0  0  0  0  0  0  0  0  0  0  0  0
    3.8735   -1.8286    0.0000 C   0  0  0  0  0  0  0  0  0  0  0  0
    4.1160   -0.4064    0.0000 C   0  0  0  0  0  0  0  0  0  0  0  0
    4.3979   -1.1798    0.0000 C   0  0  0  0  0  0  0  0  0  0  0  0
    5.2106   -1.3109    0.0000 C   0  0  2  0  0  0  0  0  0  0  0  0
    5.7349   -0.6620    0.0000 C   0  0  0  0  0  0  0  0  0  0  0  0
    5.4924   -2.0843    0.0000 C   0  0  0  0  0  0  0  0  0  0  0  0
    5.4400    0.1245    0.0000 O   0  0  0  0  0  0  0  0  0  0  0  0
    6.5477   -0.7931    0.0000 O   0  0  0  0  0  0  0  0  0  0  0  0
  1  2  1  0  0  0  0
  2  3  2  0  0  0  0
  2  4  1  0  0  0  0
  3  5  1  0  0  0  0
  4  6  2  0  0  0  0
  5  7  2  0  0  0  0
  5  8  1  0  0  0  0
  7  9  1  0  0  0  0
  8 10  2  0  0  0  0
  8 11  1  0  0  0  0
 10 12  1  0  0  0  0
 11 13  2  0  0  0  0
 12 14  2  0  0  0  0
 14 15  1  0  0  0  0
 15 16  1  0  0  0  0
 15 17  1  6  0  0  0
 16 18  2  0  0  0  0
 16 19  1  0  0  0  0
  6  7  1  0  0  0  0
  9 10  1  0  0  0  0
 13 14  1  0  0  0  0
M  RAD  1   9   2
M  END

>  <name>
Carprofen

>  <ROTATABLE_BONDCOUNT>
2

>  <HBDScore>
0.8333333333333334

>  <logD>
0.98

>  <MPOScore>
5.3533333333333335

>  <logDScore>
1.0

>  <MW>
272.71

>  <charge_dist(7.4)>
-1.00

>  <CNS>
FALSE

>  <ArRings>
3

>  <HBD>
1

>  <BALABAN_INDEX>
1.57

>  <bpKa>
0.0

>  <TPSAScore>
1.0

>  <MWScore>
1.0

>  <bpKaScore>
1.0

>  <logPScore>
0.52

>  <MPO_area>
79.78

>  <TPSA>
50.19

>  <logP>
3.96

$$$$

  Mrv1722703221715202D          

 21 22  0  0  0  0            999 V2000
    0.0000    0.0000    0.0000 O   0  0  0  0  0  0  0  0  0  0  0  0
    0.7468    0.3507    0.0000 C   0  0  0  0  0  0  0  0  0  0  0  0
    0.8182    1.1819    0.0000 N   0  0  0  0  0  0  0  0  0  0  0  0
    1.4157   -0.1234    0.0000 C   0  0  0  0  0  0  0  0  0  0  0  0
    1.5650    1.5326    0.0000 C   0  0  0  0  0  0  0  0  0  0  0  0
    2.1624    0.2273    0.0000 C   0  0  0  0  0  0  0  0  0  0  0  0
    2.2339    1.0585    0.0000 C   0  0  0  0  0  0  0  0  0  0  0  0
    1.6365    2.3637    0.0000 C   0  0  0  0  0  0  0  0  0  0  0  0
    2.9807    1.4092    0.0000 C   0  0  0  0  0  0  0  0  0  0  0  0
    2.3832    2.7144    0.0000 C   0  0  0  0  0  0  0  0  0  0  0  0
    3.6495    0.9351    0.0000 O   0  0  0  0  0  0  0  0  0  0  0  0
    3.0521    2.2404    0.0000 C   0  0  0  0  0  0  0  0  0  0  0  0
    4.3963    1.2858    0.0000 C   0  0  0  0  0  0  0  0  0  0  0  0
    5.0652    0.8117    0.0000 C   0  0  1  0  0  0  0  0  0  0  0  0
    4.9808   -0.0065    0.0000 O   0  0  0  0  0  0  0  0  0  0  0  0
    5.8120    1.1624    0.0000 C   0  0  0  0  0  0  0  0  0  0  0  0
    6.4809    0.6883    0.0000 N   0  0  0  0  0  0  0  0  0  0  0  0
    7.2277    1.0390    0.0000 C   0  0  0  0  0  0  0  0  0  0  0  0
    7.5653    0.2922    0.0000 C   0  0  0  0  0  0  0  0  0  0  0  0
    6.8770    1.7988    0.0000 C   0  0  0  0  0  0  0  0  0  0  0  0
    7.9744    1.3897    0.0000 C   0  0  0  0  0  0  0  0  0  0  0  0
  1  2  2  0  0  0  0
  2  3  1  0  0  0  0
  2  4  1  0  0  0  0
  3  5  1  0  0  0  0
  4  6  1  0  0  0  0
  5  7  2  0  0  0  0
  5  8  1  0  0  0  0
  7  9  1  0  0  0  0
  8 10  2  0  0  0  0
  9 11  1  0  0  0  0
  9 12  2  0  0  0  0
 11 13  1  0  0  0  0
 13 14  1  0  0  0  0
 14 15  1  6  0  0  0
 14 16  1  0  0  0  0
 16 17  1  0  0  0  0
 17 18  1  0  0  0  0
 18 19  1  0  0  0  0
 18 20  1  0  0  0  0
 18 21  1  0  0  0  0
  6  7  1  0  0  0  0
 10 12  1  0  0  0  0
M  END

>  <name>
Carteolol

>  <ROTATABLE_BONDCOUNT>
6

>  <HBDScore>
0.16666666666666674

>  <dipole>
3.30

>  <logD>
-0.89

>  <MPOScore>
4.286666666666667

>  <logDScore>
1.0

>  <MW>
292.379

>  <charge_dist(7.4)>
1.00

>  <CNS>
FALSE

>  <ArRings>
1

>  <HBD>
3

>  <BALABAN_INDEX>
1.66

>  <bpKa>
9.76

>  <TPSAScore>
1.0

>  <MWScore>
1.0

>  <bpKaScore>
0.1200000000000001

>  <logPScore>
1.0

>  <MPO_area>
55.11

>  <TPSA>
70.59

>  <logP>
1.42

$$$$

  Mrv1722703221715202D          

 24 26  0  0  0  0            999 V2000
    0.0000    0.0000    0.0000 Cl  0  0  0  0  0  0  0  0  0  0  0  0
   -0.6828   -0.4573    0.0000 C   0  0  0  0  0  0  0  0  0  0  0  0
   -0.6248   -1.2689    0.0000 C   0  0  0  0  0  0  0  0  0  0  0  0
   -1.4300   -0.0966    0.0000 C   0  0  0  0  0  0  0  0  0  0  0  0
   -1.3076   -1.7263    0.0000 N   0  0  0  0  0  0  0  0  0  0  0  0
    0.1095   -1.6167    0.0000 C   0  0  0  0  0  0  0  0  0  0  0  0
   -2.1127   -0.5540    0.0000 S   0  0  0  0  0  0  0  0  0  0  0  0
   -1.6683   -2.4606    0.0000 C   0  0  0  0  0  0  0  0  0  0  0  0
   -2.0548   -1.3655    0.0000 C   0  0  1  0  0  0  0  0  0  0  0  0
    0.7794   -1.1465    0.0000 O   0  0  0  0  0  0  0  0  0  0  0  0
    0.1675   -2.4283    0.0000 O   0  0  0  0  0  0  0  0  0  0  0  0
   -1.3977   -3.2271    0.0000 O   0  0  0  0  0  0  0  0  0  0  0  0
   -2.4155   -2.0999    0.0000 C   0  0  1  0  0  0  0  0  0  0  0  0
   -3.1948   -2.3704    0.0000 N   0  0  0  0  0  0  0  0  0  0  0  0
   -3.8261   -1.8293    0.0000 C   0  0  0  0  0  0  0  0  0  0  0  0
   -3.6844   -1.0177    0.0000 O   0  0  0  0  0  0  0  0  0  0  0  0
   -4.6055   -2.0999    0.0000 C   0  0  1  0  0  0  0  0  0  0  0  0
   -4.7601   -2.8985    0.0000 N   0  0  0  0  0  0  0  0  0  0  0  0
   -5.2367   -1.5588    0.0000 C   0  0  0  0  0  0  0  0  0  0  0  0
   -5.0950   -0.7472    0.0000 C   0  0  0  0  0  0  0  0  0  0  0  0
   -6.0161   -1.8293    0.0000 C   0  0  0  0  0  0  0  0  0  0  0  0
   -5.7262   -0.2061    0.0000 C   0  0  0  0  0  0  0  0  0  0  0  0
   -6.6474   -1.2883    0.0000 C   0  0  0  0  0  0  0  0  0  0  0  0
   -6.5056   -0.4766    0.0000 C   0  0  0  0  0  0  0  0  0  0  0  0
  1  2  1  0  0  0  0
  2  3  2  0  0  0  0
  2  4  1  0  0  0  0
  3  5  1  0  0  0  0
  3  6  1  0  0  0  0
  4  7  1  0  0  0  0
  5  8  1  0  0  0  0
  5  9  1  0  0  0  0
  6 10  2  0  0  0  0
  6 11  1  0  0  0  0
  8 12  2  0  0  0  0
  8 13  1  0  0  0  0
 13 14  1  6  0  0  0
 14 15  1  0  0  0  0
 15 16  2  0  0  0  0
 15 17  1  0  0  0  0
 17 18  1  1  0  0  0
 17 19  1  0  0  0  0
 19 20  2  0  0  0  0
 19 21  1  0  0  0  0
 20 22  1  0  0  0  0
 21 23  2  0  0  0  0
 22 24  2  0  0  0  0
  9  7  1  6  0  0  0
  9 13  1  0  0  0  0
 23 24  1  0  0  0  0
M  END

>  <name>
Cefaclor

>  <ROTATABLE_BONDCOUNT>
4

>  <HBDScore>
0.16666666666666674

>  <dipole>
9.13

>  <logD>
-2.66

>  <MPOScore>
4.353285714285714

>  <logDScore>
1.0

>  <MW>
367.80

>  <charge_dist(7.4)>
-0.60

>  <CNS>
FALSE

>  <ArRings>
1

>  <HBD>
3

>  <BALABAN_INDEX>
1.46

>  <bpKa>
7.23

>  <TPSAScore>
0.24233333333333318

>  <MWScore>
0.9442857142857142

>  <bpKaScore>
1.0

>  <logPScore>
1.0

>  <MPO_area>
56.34

>  <TPSA>
112.73

>  <logP>
-2.31

$$$$

  Mrv1722703221715202D          

 26 28  0  0  0  0            999 V2000
    0.0000    0.0000    0.0000 S   0  0  0  0  0  0  0  0  0  0  0  0
   -0.3058   -0.7677    0.0000 C   0  0  2  0  0  0  0  0  0  0  0  0
    0.8067    0.1366    0.0000 C   0  0  0  0  0  0  0  0  0  0  0  0
    0.2082   -1.4052    0.0000 N   0  0  0  0  0  0  0  0  0  0  0  0
   -0.9563   -1.2816    0.0000 C   0  0  2  0  0  0  0  0  0  0  0  0
    1.3207   -0.5010    0.0000 C   0  0  0  0  0  0  0  0  0  0  0  0
    1.0149   -1.2686    0.0000 C   0  0  0  0  0  0  0  0  0  0  0  0
   -0.4424   -1.9192    0.0000 C   0  0  0  0  0  0  0  0  0  0  0  0
   -1.7826   -1.1906    0.0000 N   0  0  0  0  0  0  0  0  0  0  0  0
    2.1274   -0.3643    0.0000 C   0  0  0  0  0  0  0  0  0  0  0  0
    1.5288   -1.9062    0.0000 C   0  0  0  0  0  0  0  0  0  0  0  0
   -0.5335   -2.7324    0.0000 O   0  0  0  0  0  0  0  0  0  0  0  0
   -2.1274   -0.4294    0.0000 C   0  0  0  0  0  0  0  0  0  0  0  0
    2.6413   -1.0019    0.0000 C   0  0  0  0  0  0  0  0  0  0  0  0
    2.3356   -1.7696    0.0000 O   0  0  0  0  0  0  0  0  0  0  0  0
    1.2231   -2.6739    0.0000 O   0  0  0  0  0  0  0  0  0  0  0  0
   -1.6460    0.2472    0.0000 O   0  0  0  0  0  0  0  0  0  0  0  0
   -2.9536   -0.3383    0.0000 C   0  0  0  0  0  0  0  0  0  0  0  0
   -3.2984    0.4229    0.0000 N   0  0  0  0  0  0  0  0  0  0  0  0
   -3.4481   -1.0019    0.0000 C   0  0  0  0  0  0  0  0  0  0  0  0
   -2.8170    1.0995    0.0000 O   0  0  0  0  0  0  0  0  0  0  0  0
   -3.2008   -1.7826    0.0000 N   0  0  0  0  0  0  0  0  0  0  0  0
   -4.2808   -0.9954    0.0000 C   0  0  0  0  0  0  0  0  0  0  0  0
   -3.8774   -2.2640    0.0000 C   0  0  0  0  0  0  0  0  0  0  0  0
   -4.5410   -1.7760    0.0000 S   0  0  0  0  0  0  0  0  0  0  0  0
   -3.8839   -3.0837    0.0000 N   0  0  0  0  0  0  0  0  0  0  0  0
  2  1  1  6  0  0  0
  1  3  1  0  0  0  0
  2  4  1  0  0  0  0
  2  5  1  0  0  0  0
  3  6  1  0  0  0  0
  4  7  1  0  0  0  0
  4  8  1  0  0  0  0
  5  9  1  6  0  0  0
  6 10  1  0  0  0  0
  7 11  1  0  0  0  0
  8 12  2  0  0  0  0
  9 13  1  0  0  0  0
 10 14  2  0  0  0  0
 11 15  2  0  0  0  0
 11 16  1  0  0  0  0
 13 17  2  0  0  0  0
 13 18  1  0  0  0  0
 18 19  2  0  0  0  0
 18 20  1  0  0  0  0
 19 21  1  0  0  0  0
 20 22  1  0  0  0  0
 20 23  2  0  0  0  0
 22 24  2  0  0  0  0
 23 25  1  0  0  0  0
 24 26  1  0  0  0  0
  5  8  1  0  0  0  0
  6  7  2  0  0  0  0
 24 25  1  0  0  0  0
M  END

>  <name>
Cefdinir

>  <ROTATABLE_BONDCOUNT>
5

>  <HBDScore>
0.0

>  <dipole>
7.00

>  <logD>
-3.66

>  <MPOScore>
3.747071428571428

>  <logDScore>
1.0

>  <MW>
395.41

>  <charge_dist(7.4)>
-1.21

>  <CNS>
FALSE

>  <ArRings>
1

>  <HBD>
4

>  <BALABAN_INDEX>
1.62

>  <bpKa>
3.68

>  <TPSAScore>
0.0

>  <MWScore>
0.7470714285714284

>  <bpKaScore>
1.0

>  <logPScore>
1.0

>  <MPO_area>
45.78

>  <TPSA>
158.21

>  <logP>
-0.79

$$$$

  Mrv1722703221715202D          

 33 36  0  0  0  0            999 V2000
    0.0000    0.0000    0.0000 S   0  0  0  0  0  0  0  0  0  0  0  0
   -0.5276   -0.6318    0.0000 C   0  0  2  0  0  0  0  0  0  0  0  0
    0.8076   -0.1238    0.0000 C   0  0  0  0  0  0  0  0  0  0  0  0
   -0.2410   -1.4004    0.0000 N   0  0  0  0  0  0  0  0  0  0  0  0
   -1.3092   -0.9184    0.0000 C   0  0  2  0  0  0  0  0  0  0  0  0
    1.0942   -0.8924    0.0000 C   0  0  0  0  0  0  0  0  0  0  0  0
    0.5666   -1.5241    0.0000 C   0  0  0  0  0  0  0  0  0  0  0  0
   -1.0226   -1.6870    0.0000 C   0  0  0  0  0  0  0  0  0  0  0  0
   -2.0712   -0.5732    0.0000 N   0  0  0  0  0  0  0  0  0  0  0  0
    1.9019   -1.0161    0.0000 C   0  0  0  0  0  0  0  0  0  0  0  0
    0.8533   -2.2927    0.0000 C   0  0  0  0  0  0  0  0  0  0  0  0
   -1.3678   -2.4360    0.0000 O   0  0  0  0  0  0  0  0  0  0  0  0
   -2.1625    0.2540    0.0000 C   0  0  0  0  0  0  0  0  0  0  0  0
    2.4165   -0.3713    0.0000 C   0  0  0  0  0  0  0  0  0  0  0  0
    1.6609   -2.4165    0.0000 O   0  0  0  0  0  0  0  0  0  0  0  0
    0.3256   -2.9245    0.0000 O   0  0  0  0  0  0  0  0  0  0  0  0
   -1.4981    0.7425    0.0000 O   0  0  0  0  0  0  0  0  0  0  0  0
   -2.9245    0.5992    0.0000 C   0  0  0  0  0  0  0  0  0  0  0  0
    2.1169    0.4104    0.0000 C   0  0  0  0  0  0  0  0  0  0  0  0
   -3.0157    1.4265    0.0000 N   0  0  0  0  0  0  0  0  0  0  0  0
   -3.6019    0.1238    0.0000 C   0  0  0  0  0  0  0  0  0  0  0  0
    1.3092    0.6318    0.0000 S   0  0  0  0  0  0  0  0  0  0  0  0
    2.5663    1.1073    0.0000 C   0  0  0  0  0  0  0  0  0  0  0  0
   -2.3513    1.9150    0.0000 O   0  0  0  0  0  0  0  0  0  0  0  0
   -3.6150   -0.6970    0.0000 N   0  0  0  0  0  0  0  0  0  0  0  0
   -4.3966    0.3908    0.0000 C   0  0  0  0  0  0  0  0  0  0  0  0
    1.2636    1.4655    0.0000 C   0  0  0  0  0  0  0  0  0  0  0  0
    2.0387    1.7586    0.0000 N   0  0  0  0  0  0  0  0  0  0  0  0
    3.3870    1.1529    0.0000 C   0  0  0  0  0  0  0  0  0  0  0  0
   -2.4425    2.7421    0.0000 C   0  0  0  0  0  0  0  0  0  0  0  0
   -4.4096   -0.9445    0.0000 C   0  0  0  0  0  0  0  0  0  0  0  0
   -4.8916   -0.2670    0.0000 S   0  0  0  0  0  0  0  0  0  0  0  0
   -4.6766   -1.7261    0.0000 N   0  0  0  0  0  0  0  0  0  0  0  0
  2  1  1  6  0  0  0
  1  3  1  0  0  0  0
  2  4  1  0  0  0  0
  2  5  1  0  0  0  0
  3  6  1  0  0  0  0
  4  7  1  0  0  0  0
  4  8  1  0  0  0  0
  5  9  1  6  0  0  0
  6 10  1  0  0  0  0
  7 11  1  0  0  0  0
  8 12  2  0  0  0  0
  9 13  1  0  0  0  0
 10 14  2  0  0  0  0
 11 15  2  0  0  0  0
 11 16  1  0  0  0  0
 13 17  2  0  0  0  0
 13 18  1  0  0  0  0
 14 19  1  0  0  0  0
 18 20  2  0  0  0  0
 18 21  1  0  0  0  0
 19 22  1  0  0  0  0
 19 23  2  0  0  0  0
 20 24  1  0  0  0  0
 21 25  1  0  0  0  0
 21 26  2  0  0  0  0
 22 27  1  0  0  0  0
 23 28  1  0  0  0  0
 23 29  1  0  0  0  0
 24 30  1  0  0  0  0
 25 31  2  0  0  0  0
 26 32  1  0  0  0  0
 31 33  1  0  0  0  0
  5  8  1  0  0  0  0
  6  7  2  0  0  0  0
 27 28  2  0  0  0  0
 31 32  1  0  0  0  0
M  END

>  <name>
Cefditoren

>  <ROTATABLE_BONDCOUNT>
7

>  <HBDScore>
0.16666666666666674

>  <dipole>
5.45

>  <logD>
-2.66

>  <MPOScore>
3.166666666666667

>  <logDScore>
1.0

>  <MW>
506.57

>  <charge_dist(7.4)>
-1.00

>  <CNS>
FALSE

>  <ArRings>
2

>  <HBD>
3

>  <BALABAN_INDEX>
1.32

>  <bpKa>
3.74

>  <TPSAScore>
0.0

>  <MWScore>
0.0

>  <bpKaScore>
1.0

>  <logPScore>
1.0

>  <MPO_area>
36.11

>  <TPSA>
160.10

>  <logP>
-0.15

$$$$

  Mrv1722703221715202D          

 28 30  0  0  0  0            999 V2000
    0.0000    0.0000    0.0000 S   0  0  0  0  0  0  0  0  0  0  0  0
   -0.2667   -0.7807    0.0000 C   0  0  2  0  0  0  0  0  0  0  0  0
    0.8002    0.1756    0.0000 C   0  0  0  0  0  0  0  0  0  0  0  0
    0.2797   -1.3922    0.0000 N   0  0  0  0  0  0  0  0  0  0  0  0
   -0.8913   -1.3272    0.0000 C   0  0  2  0  0  0  0  0  0  0  0  0
    1.3467   -0.4359    0.0000 C   0  0  0  0  0  0  0  0  0  0  0  0
    1.0799   -1.2166    0.0000 C   0  0  0  0  0  0  0  0  0  0  0  0
   -0.3448   -1.9387    0.0000 C   0  0  0  0  0  0  0  0  0  0  0  0
   -1.7240   -1.2751    0.0000 N   0  0  0  0  0  0  0  0  0  0  0  0
    2.1534   -0.2602    0.0000 C   0  0  0  0  0  0  0  0  0  0  0  0
    1.6264   -1.8281    0.0000 C   0  0  0  0  0  0  0  0  0  0  0  0
   -0.3968   -2.7584    0.0000 O   0  0  0  0  0  0  0  0  0  0  0  0
   -2.1013   -0.5269    0.0000 C   0  0  0  0  0  0  0  0  0  0  0  0
    2.6999   -0.8717    0.0000 O   0  0  0  0  0  0  0  0  0  0  0  0
    2.4266   -1.6524    0.0000 O   0  0  0  0  0  0  0  0  0  0  0  0
    1.3597   -2.6088    0.0000 O   0  0  0  0  0  0  0  0  0  0  0  0
   -1.6524    0.1691    0.0000 O   0  0  0  0  0  0  0  0  0  0  0  0
   -2.9341   -0.4749    0.0000 C   0  0  0  0  0  0  0  0  0  0  0  0
    3.5000   -0.6961    0.0000 C   0  0  0  0  0  0  0  0  0  0  0  0
   -3.3114    0.2732    0.0000 N   0  0  0  0  0  0  0  0  0  0  0  0
   -3.3959   -1.1580    0.0000 C   0  0  0  0  0  0  0  0  0  0  0  0
   -2.8625    0.9694    0.0000 O   0  0  0  0  0  0  0  0  0  0  0  0
   -3.1097   -1.9257    0.0000 N   0  0  0  0  0  0  0  0  0  0  0  0
   -4.2286   -1.1905    0.0000 C   0  0  0  0  0  0  0  0  0  0  0  0
   -3.2398    1.7175    0.0000 C   0  0  0  0  0  0  0  0  0  0  0  0
   -3.7603   -2.4331    0.0000 C   0  0  0  0  0  0  0  0  0  0  0  0
   -4.4564   -1.9842    0.0000 S   0  0  0  0  0  0  0  0  0  0  0  0
   -3.7278   -3.2528    0.0000 N   0  0  0  0  0  0  0  0  0  0  0  0
  2  1  1  6  0  0  0
  1  3  1  0  0  0  0
  2  4  1  0  0  0  0
  2  5  1  0  0  0  0
  3  6  1  0  0  0  0
  4  7  1  0  0  0  0
  4  8  1  0  0  0  0
  5  9  1  6  0  0  0
  6 10  1  0  0  0  0
  7 11  1  0  0  0  0
  8 12  2  0  0  0  0
  9 13  1  0  0  0  0
 10 14  1  0  0  0  0
 11 15  2  0  0  0  0
 11 16  1  0  0  0  0
 13 17  2  0  0  0  0
 13 18  1  0  0  0  0
 14 19  1  0  0  0  0
 18 20  2  0  0  0  0
 18 21  1  0  0  0  0
 20 22  1  0  0  0  0
 21 23  1  0  0  0  0
 21 24  2  0  0  0  0
 22 25  1  0  0  0  0
 23 26  2  0  0  0  0
 24 27  1  0  0  0  0
 26 28  1  0  0  0  0
  5  8  1  0  0  0  0
  6  7  2  0  0  0  0
 26 27  1  0  0  0  0
M  END

>  <name>
Cefpodoxime

>  <ROTATABLE_BONDCOUNT>
7

>  <HBDScore>
0.16666666666666674

>  <dipole>
8.48

>  <logD>
-3.96

>  <MPOScore>
3.6848809523809525

>  <logDScore>
1.0

>  <MW>
427.45

>  <charge_dist(7.4)>
-1.00

>  <CNS>
FALSE

>  <ArRings>
1

>  <HBD>
3

>  <BALABAN_INDEX>
1.52

>  <bpKa>
3.67

>  <TPSAScore>
0.0

>  <MWScore>
0.5182142857142857

>  <bpKaScore>
1.0

>  <logPScore>
1.0

>  <MPO_area>
43.41

>  <TPSA>
156.44

>  <logP>
-1.19

$$$$

  Mrv1722703221715202D          

 29 31  0  0  0  0            999 V2000
    0.0000    0.0000    0.0000 S   0  0  0  0  0  0  0  0  0  0  0  0
   -0.2475   -0.7881    0.0000 C   0  0  2  0  0  0  0  0  0  0  0  0
    0.8011    0.1954    0.0000 C   0  0  0  0  0  0  0  0  0  0  0  0
    0.3126   -1.3807    0.0000 N   0  0  0  0  0  0  0  0  0  0  0  0
   -0.8532   -1.3482    0.0000 C   0  0  2  0  0  0  0  0  0  0  0  0
    1.3612   -0.3973    0.0000 C   0  0  0  0  0  0  0  0  0  0  0  0
    1.1137   -1.1853    0.0000 C   0  0  0  0  0  0  0  0  0  0  0  0
   -0.2931   -1.9408    0.0000 C   0  0  0  0  0  0  0  0  0  0  0  0
   -1.6868   -1.3156    0.0000 N   0  0  0  0  0  0  0  0  0  0  0  0
    2.1622   -0.2019    0.0000 C   0  0  0  0  0  0  0  0  0  0  0  0
    1.6738   -1.7780    0.0000 C   0  0  0  0  0  0  0  0  0  0  0  0
   -0.3256   -2.7614    0.0000 O   0  0  0  0  0  0  0  0  0  0  0  0
   -2.0841   -0.5796    0.0000 C   0  0  0  0  0  0  0  0  0  0  0  0
    2.7223   -0.7946    0.0000 O   0  0  0  0  0  0  0  0  0  0  0  0
    2.4749   -1.5826    0.0000 O   0  0  0  0  0  0  0  0  0  0  0  0
    1.4263   -2.5660    0.0000 O   0  0  0  0  0  0  0  0  0  0  0  0
   -1.6543    0.1303    0.0000 O   0  0  0  0  0  0  0  0  0  0  0  0
   -2.9177   -0.5471    0.0000 C   0  0  0  0  0  0  0  0  0  0  0  0
    3.5234   -0.5992    0.0000 C   0  0  0  0  0  0  0  0  0  0  0  0
   -3.3150    0.1889    0.0000 N   0  0  0  0  0  0  0  0  0  0  0  0
   -3.3606   -1.2440    0.0000 C   0  0  0  0  0  0  0  0  0  0  0  0
    3.7578    0.2019    0.0000 O   0  0  0  0  0  0  0  0  0  0  0  0
    4.0835   -1.1918    0.0000 N   0  0  0  0  0  0  0  0  0  0  0  0
   -4.1487    0.2214    0.0000 O   0  0  0  0  0  0  0  0  0  0  0  0
   -3.0545   -2.0059    0.0000 O   0  0  0  0  0  0  0  0  0  0  0  0
   -4.1942   -1.3025    0.0000 C   0  0  0  0  0  0  0  0  0  0  0  0
   -4.5459    0.9574    0.0000 C   0  0  0  0  0  0  0  0  0  0  0  0
   -3.6927   -2.5335    0.0000 C   0  0  0  0  0  0  0  0  0  0  0  0
   -4.3961   -2.0971    0.0000 C   0  0  0  0  0  0  0  0  0  0  0  0
  2  1  1  6  0  0  0
  1  3  1  0  0  0  0
  2  4  1  0  0  0  0
  2  5  1  0  0  0  0
  3  6  1  0  0  0  0
  4  7  1  0  0  0  0
  4  8  1  0  0  0  0
  5  9  1  6  0  0  0
  6 10  1  0  0  0  0
  7 11  1  0  0  0  0
  8 12  2  0  0  0  0
  9 13  1  0  0  0  0
 10 14  1  0  0  0  0
 11 15  2  0  0  0  0
 11 16  1  0  0  0  0
 13 17  2  0  0  0  0
 13 18  1  0  0  0  0
 14 19  1  0  0  0  0
 18 20  2  0  0  0  0
 18 21  1  0  0  0  0
 19 22  2  0  0  0  0
 19 23  1  0  0  0  0
 20 24  1  0  0  0  0
 21 25  1  0  0  0  0
 21 26  2  0  0  0  0
 24 27  1  0  0  0  0
 25 28  1  0  0  0  0
 26 29  1  0  0  0  0
  5  8  1  0  0  0  0
  6  7  2  0  0  0  0
 28 29  2  0  0  0  0
M  END

>  <name>
Cefuroxime

>  <ROTATABLE_BONDCOUNT>
8

>  <HBDScore>
0.16666666666666674

>  <dipole>
6.20

>  <logD>
-4.36

>  <MPOScore>
3.7068095238095244

>  <logDScore>
1.0

>  <MW>
424.38

>  <charge_dist(7.4)>
-1.00

>  <CNS>
FALSE

>  <ArRings>
1

>  <HBD>
3

>  <BALABAN_INDEX>
1.46

>  <bpKa>
-1.15

>  <TPSAScore>
0.0

>  <MWScore>
0.5401428571428573

>  <bpKaScore>
1.0

>  <logPScore>
1.0

>  <MPO_area>
43.84

>  <TPSA>
173.76

>  <logP>
-0.90

$$$$

  Mrv1722703221715202D          

 26 28  0  0  0  0            999 V2000
    0.0000    0.0000    0.0000 S   0  0  0  0  0  0  0  0  0  0  0  0
   -0.0966   -0.8118    0.0000 O   0  0  0  0  0  0  0  0  0  0  0  0
    0.0837    0.8248    0.0000 O   0  0  0  0  0  0  0  0  0  0  0  0
    0.8118   -0.0837    0.0000 N   0  0  0  0  0  0  0  0  0  0  0  0
   -0.8248    0.0966    0.0000 C   0  0  0  0  0  0  0  0  0  0  0  0
   -1.3209   -0.5606    0.0000 C   0  0  0  0  0  0  0  0  0  0  0  0
   -1.1598    0.8570    0.0000 C   0  0  0  0  0  0  0  0  0  0  0  0
   -2.1457   -0.4639    0.0000 C   0  0  0  0  0  0  0  0  0  0  0  0
   -1.9845    0.9536    0.0000 C   0  0  0  0  0  0  0  0  0  0  0  0
   -2.4807    0.2964    0.0000 C   0  0  0  0  0  0  0  0  0  0  0  0
   -3.3055    0.3930    0.0000 N   0  0  0  0  0  0  0  0  0  0  0  0
   -3.8660   -0.2062    0.0000 N   0  0  0  0  0  0  0  0  0  0  0  0
   -3.7178    1.1147    0.0000 C   0  0  0  0  0  0  0  0  0  0  0  0
   -4.6199    0.1417    0.0000 C   0  0  0  0  0  0  0  0  0  0  0  0
   -3.3828    1.8686    0.0000 C   0  0  0  0  0  0  0  0  0  0  0  0
   -4.5297    0.9536    0.0000 C   0  0  0  0  0  0  0  0  0  0  0  0
   -5.3416   -0.2577    0.0000 C   0  0  0  0  0  0  0  0  0  0  0  0
   -2.5709    1.9588    0.0000 C   0  0  0  0  0  0  0  0  0  0  0  0
   -3.8660    2.5451    0.0000 C   0  0  0  0  0  0  0  0  0  0  0  0
   -6.0632   -0.6572    0.0000 F   0  0  0  0  0  0  0  0  0  0  0  0
   -5.7539    0.4639    0.0000 F   0  0  0  0  0  0  0  0  0  0  0  0
   -4.9421   -0.9665    0.0000 F   0  0  0  0  0  0  0  0  0  0  0  0
   -2.2358    2.7127    0.0000 C   0  0  0  0  0  0  0  0  0  0  0  0
   -3.5310    3.2990    0.0000 C   0  0  0  0  0  0  0  0  0  0  0  0
   -2.7191    3.3892    0.0000 C   0  0  0  0  0  0  0  0  0  0  0  0
   -2.3841    4.1431    0.0000 C   0  0  0  0  0  0  0  0  0  0  0  0
  1  2  2  0  0  0  0
  1  3  2  0  0  0  0
  1  4  1  0  0  0  0
  1  5  1  0  0  0  0
  5  6  2  0  0  0  0
  5  7  1  0  0  0  0
  6  8  1  0  0  0  0
  7  9  2  0  0  0  0
  8 10  2  0  0  0  0
 10 11  1  0  0  0  0
 11 12  1  0  0  0  0
 11 13  1  0  0  0  0
 12 14  2  0  0  0  0
 13 15  1  0  0  0  0
 13 16  2  0  0  0  0
 14 17  1  0  0  0  0
 15 18  2  0  0  0  0
 15 19  1  0  0  0  0
 17 20  1  0  0  0  0
 17 21  1  0  0  0  0
 17 22  1  0  0  0  0
 18 23  1  0  0  0  0
 19 24  2  0  0  0  0
 23 25  2  0  0  0  0
 25 26  1  0  0  0  0
  9 10  1  0  0  0  0
 14 16  1  0  0  0  0
 24 25  1  0  0  0  0
M  END

>  <name>
Celecoxib

>  <ROTATABLE_BONDCOUNT>
4

>  <HBDScore>
0.8333333333333334

>  <dipole>
10.88

>  <logD>
4.01

>  <MPOScore>
4.175690476190477

>  <logDScore>
0.0

>  <MW>
381.37

>  <charge_dist(7.4)>
-0.00

>  <CNS>
FALSE

>  <ArRings>
3

>  <HBD>
1

>  <BALABAN_INDEX>
1.68

>  <bpKa>
-0.41

>  <TPSAScore>
1.0

>  <MWScore>
0.8473571428571428

>  <bpKaScore>
1.0

>  <logPScore>
0.4950000000000001

>  <MPO_area>
49.43

>  <TPSA>
77.98

>  <logP>
4.01

$$$$

  Mrv1722703221715202D          

 38 41  0  0  0  0            999 V2000
    0.0000    0.0000    0.0000 Cl  0  0  0  0  0  0  0  0  0  0  0  0
    0.5160   -0.6386    0.0000 C   0  0  0  0  0  0  0  0  0  0  0  0
    0.2128   -1.4062    0.0000 C   0  0  0  0  0  0  0  0  0  0  0  0
    1.3287   -0.4966    0.0000 C   0  0  0  0  0  0  0  0  0  0  0  0
    0.7288   -2.0447    0.0000 N   0  0  0  0  0  0  0  0  0  0  0  0
   -0.6128   -1.5351    0.0000 N   0  0  0  0  0  0  0  0  0  0  0  0
    1.8447   -1.1352    0.0000 N   0  0  0  0  0  0  0  0  0  0  0  0
    1.5416   -1.9028    0.0000 C   0  0  0  0  0  0  0  0  0  0  0  0
   -0.9159   -2.3027    0.0000 C   0  0  0  0  0  0  0  0  0  0  0  0
    2.0576   -2.5414    0.0000 N   0  0  0  0  0  0  0  0  0  0  0  0
   -1.7415   -2.4317    0.0000 C   0  0  0  0  0  0  0  0  0  0  0  0
   -0.3999   -2.9412    0.0000 C   0  0  0  0  0  0  0  0  0  0  0  0
    2.8703   -2.3994    0.0000 C   0  0  0  0  0  0  0  0  0  0  0  0
   -2.2704   -1.7803    0.0000 S   0  0  0  0  0  0  0  0  0  0  0  0
   -2.0382   -3.1993    0.0000 C   0  0  0  0  0  0  0  0  0  0  0  0
   -0.7031   -3.7088    0.0000 C   0  0  0  0  0  0  0  0  0  0  0  0
    3.1606   -1.6190    0.0000 C   0  0  0  0  0  0  0  0  0  0  0  0
    3.3863   -3.0380    0.0000 C   0  0  0  0  0  0  0  0  0  0  0  0
   -1.6319   -1.2513    0.0000 O   0  0  0  0  0  0  0  0  0  0  0  0
   -2.9219   -2.2962    0.0000 O   0  0  0  0  0  0  0  0  0  0  0  0
   -2.7993   -1.1288    0.0000 C   0  0  0  0  0  0  0  0  0  0  0  0
   -1.5222   -3.8378    0.0000 C   0  0  0  0  0  0  0  0  0  0  0  0
    2.6316   -0.9675    0.0000 O   0  0  0  0  0  0  0  0  0  0  0  0
    3.9733   -1.4771    0.0000 C   0  0  0  0  0  0  0  0  0  0  0  0
    4.1990   -2.8961    0.0000 C   0  0  0  0  0  0  0  0  0  0  0  0
   -3.6249   -1.2577    0.0000 C   0  0  0  0  0  0  0  0  0  0  0  0
   -2.5091   -0.3483    0.0000 C   0  0  0  0  0  0  0  0  0  0  0  0
    2.9219   -0.1871    0.0000 C   0  0  0  0  0  0  0  0  0  0  0  0
    4.4893   -2.1156    0.0000 C   0  0  0  0  0  0  0  0  0  0  0  0
    4.7150   -3.5347    0.0000 C   0  0  0  0  0  0  0  0  0  0  0  0
    2.3930    0.4644    0.0000 C   0  0  0  0  0  0  0  0  0  0  0  0
    3.7346   -0.0451    0.0000 C   0  0  0  0  0  0  0  0  0  0  0  0
    5.3020   -1.9737    0.0000 C   0  0  0  0  0  0  0  0  0  0  0  0
    5.8180   -2.6123    0.0000 C   0  0  0  0  0  0  0  0  0  0  0  0
    5.5923   -1.1933    0.0000 C   0  0  0  0  0  0  0  0  0  0  0  0
    6.6307   -2.4704    0.0000 C   0  0  0  0  0  0  0  0  0  0  0  0
    6.4050   -1.0514    0.0000 C   0  0  0  0  0  0  0  0  0  0  0  0
    6.9210   -1.6899    0.0000 N   0  0  0  0  0  0  0  0  0  0  0  0
  1  2  1  0  0  0  0
  2  3  2  0  0  0  0
  2  4  1  0  0  0  0
  3  5  1  0  0  0  0
  3  6  1  0  0  0  0
  4  7  2  0  0  0  0
  5  8  2  0  0  0  0
  6  9  1  0  0  0  0
  8 10  1  0  0  0  0
  9 11  2  0  0  0  0
  9 12  1  0  0  0  0
 10 13  1  0  0  0  0
 11 14  1  0  0  0  0
 11 15  1  0  0  0  0
 12 16  2  0  0  0  0
 13 17  2  0  0  0  0
 13 18  1  0  0  0  0
 14 19  2  0  0  0  0
 14 20  2  0  0  0  0
 14 21  1  0  0  0  0
 15 22  2  0  0  0  0
 17 23  1  0  0  0  0
 17 24  1  0  0  0  0
 18 25  2  0  0  0  0
 21 26  1  0  0  0  0
 21 27  1  0  0  0  0
 23 28  1  0  0  0  0
 24 29  2  0  0  0  0
 25 30  1  0  0  0  0
 28 31  1  0  0  0  0
 28 32  1  0  0  0  0
 29 33  1  0  0  0  0
 33 34  1  0  0  0  0
 33 35  1  0  0  0  0
 34 36  1  0  0  0  0
 35 37  1  0  0  0  0
 36 38  1  0  0  0  0
  7  8  1  0  0  0  0
 16 22  1  0  0  0  0
 25 29  1  0  0  0  0
 37 38  1  0  0  0  0
M  END

>  <name>
Ceritinib

>  <ROTATABLE_BONDCOUNT>
9

>  <HBDScore>
0.16666666666666674

>  <dipole>
10.26

>  <logD>
3.38

>  <MPOScore>
0.968666666666667

>  <logDScore>
0.31000000000000005

>  <MW>
558.14

>  <charge_dist(7.4)>
1.00

>  <CNS>
FALSE

>  <ArRings>
3

>  <HBD>
3

>  <BALABAN_INDEX>
1.36

>  <bpKa>
10.07

>  <TPSAScore>
0.4920000000000002

>  <MWScore>
0.0

>  <bpKaScore>
0.0

>  <logPScore>
0.0

>  <MPO_area>
3.4

>  <TPSA>
105.24

>  <logP>
5.81

$$$$

  Mrv1722703221715202D          

 33 34  0  0  0  0            999 V2000
    0.0000    0.0000    0.0000 F   0  0  0  0  0  0  0  0  0  0  0  0
    0.0322    0.8244    0.0000 C   0  0  0  0  0  0  0  0  0  0  0  0
   -0.6634    1.2752    0.0000 C   0  0  0  0  0  0  0  0  0  0  0  0
    0.7536    1.2044    0.0000 C   0  0  0  0  0  0  0  0  0  0  0  0
   -0.6312    2.0996    0.0000 C   0  0  0  0  0  0  0  0  0  0  0  0
    0.7858    2.0288    0.0000 C   0  0  0  0  0  0  0  0  0  0  0  0
    0.0902    2.4796    0.0000 C   0  0  0  0  0  0  0  0  0  0  0  0
    0.1224    3.3040    0.0000 C   0  0  0  0  0  0  0  0  0  0  0  0
   -0.5732    3.7548    0.0000 C   0  0  0  0  0  0  0  0  0  0  0  0
    0.8437    3.6840    0.0000 C   0  0  0  0  0  0  0  0  0  0  0  0
   -0.5410    4.5792    0.0000 C   0  0  0  0  0  0  0  0  0  0  0  0
   -1.3074    3.3877    0.0000 C   0  0  0  0  0  0  0  0  0  0  0  0
    0.8759    4.5084    0.0000 C   0  0  0  0  0  0  0  0  0  0  0  0
    1.5264    3.2460    0.0000 C   0  0  0  0  0  0  0  0  0  0  0  0
    0.1803    4.9592    0.0000 N   0  0  0  0  0  0  0  0  0  0  0  0
   -1.2366    5.0301    0.0000 C   0  0  0  0  0  0  0  0  0  0  0  0
   -2.0030    3.8386    0.0000 C   0  0  0  0  0  0  0  0  0  0  0  0
    1.5973    4.8883    0.0000 C   0  0  0  0  0  0  0  0  0  0  0  0
    2.2477    3.6260    0.0000 O   0  0  0  0  0  0  0  0  0  0  0  0
   -1.2044    5.8544    0.0000 C   0  0  0  0  0  0  0  0  0  0  0  0
   -1.9708    4.6629    0.0000 C   0  0  0  0  0  0  0  0  0  0  0  0
   -2.7372    3.4715    0.0000 C   0  0  1  0  0  0  0  0  0  0  0  0
    1.6295    5.7128    0.0000 C   0  0  0  0  0  0  0  0  0  0  0  0
    2.2800    4.4504    0.0000 C   0  0  0  0  0  0  0  0  0  0  0  0
    2.9304    3.1881    0.0000 C   0  0  0  0  0  0  0  0  0  0  0  0
   -2.7823    2.6600    0.0000 O   0  0  0  0  0  0  0  0  0  0  0  0
   -3.4328    3.9223    0.0000 C   0  0  0  0  0  0  0  0  0  0  0  0
   -4.1670    3.5552    0.0000 C   0  0  1  0  0  0  0  0  0  0  0  0
   -4.2121    2.7437    0.0000 O   0  0  0  0  0  0  0  0  0  0  0  0
   -4.8626    4.0060    0.0000 C   0  0  0  0  0  0  0  0  0  0  0  0
   -5.5968    3.6389    0.0000 C   0  0  0  0  0  0  0  0  0  0  0  0
   -5.6419    2.8274    0.0000 O   0  0  0  0  0  0  0  0  0  0  0  0
   -6.2924    4.0897    0.0000 O   0  0  0  0  0  0  0  0  0  0  0  0
  1  2  1  0  0  0  0
  2  3  2  0  0  0  0
  2  4  1  0  0  0  0
  3  5  1  0  0  0  0
  4  6  2  0  0  0  0
  5  7  2  0  0  0  0
  7  8  1  0  0  0  0
  8  9  2  0  0  0  0
  8 10  1  0  0  0  0
  9 11  1  0  0  0  0
  9 12  1  0  0  0  0
 10 13  2  0  0  0  0
 10 14  1  0  0  0  0
 11 15  2  0  0  0  0
 11 16  1  0  0  0  0
 12 17  2  0  0  0  0
 13 18  1  0  0  0  0
 14 19  1  0  0  0  0
 16 20  1  0  0  0  0
 16 21  1  0  0  0  0
 17 22  1  0  0  0  0
 18 23  1  0  0  0  0
 18 24  1  0  0  0  0
 19 25  1  0  0  0  0
 22 26  1  1  0  0  0
 22 27  1  0  0  0  0
 27 28  1  0  0  0  0
 28 29  1  1  0  0  0
 28 30  1  0  0  0  0
 30 31  1  0  0  0  0
 31 32  2  0  0  0  0
 31 33  1  0  0  0  0
  6  7  1  0  0  0  0
 13 15  1  0  0  0  0
M  END

>  <name>
Cerivastatin

>  <ROTATABLE_BONDCOUNT>
11

>  <HBDScore>
0.16666666666666674

>  <dipole>
5.93

>  <logD>
1.15

>  <MPOScore>
4.126204761904762

>  <logDScore>
1.0

>  <MW>
459.558

>  <charge_dist(7.4)>
-0.98

>  <CNS>
FALSE

>  <ArRings>
2

>  <HBD>
3

>  <BALABAN_INDEX>
2.18

>  <bpKa>
5.58

>  <TPSAScore>
0.6706666666666667

>  <MWScore>
0.28887142857142867

>  <bpKaScore>
1.0

>  <logPScore>
1.0

>  <MPO_area>
51.32

>  <TPSA>
99.88

>  <logP>
2.67

$$$$

  Mrv1722703221715202D          

 27 29  0  0  0  0            999 V2000
    0.0000    0.0000    0.0000 Cl  0  0  0  0  0  0  0  0  0  0  0  0
   -0.5949    0.5761    0.0000 C   0  0  0  0  0  0  0  0  0  0  0  0
   -1.3903    0.3569    0.0000 C   0  0  0  0  0  0  0  0  0  0  0  0
   -0.4008    1.3777    0.0000 C   0  0  0  0  0  0  0  0  0  0  0  0
   -1.9852    0.9331    0.0000 C   0  0  0  0  0  0  0  0  0  0  0  0
   -0.9957    1.9539    0.0000 C   0  0  0  0  0  0  0  0  0  0  0  0
   -1.7910    1.7347    0.0000 C   0  0  0  0  0  0  0  0  0  0  0  0
   -2.3860    2.3109    0.0000 C   0  0  1  0  0  0  0  0  0  0  0  0
   -3.1813    2.0916    0.0000 N   0  0  0  0  0  0  0  0  0  0  0  0
   -2.1918    3.1124    0.0000 C   0  0  0  0  0  0  0  0  0  0  0  0
   -3.7762    2.6678    0.0000 C   0  0  0  0  0  0  0  0  0  0  0  0
   -3.3879    1.3026    0.0000 C   0  0  0  0  0  0  0  0  0  0  0  0
   -1.4090    3.3441    0.0000 C   0  0  0  0  0  0  0  0  0  0  0  0
   -2.7868    3.6885    0.0000 C   0  0  0  0  0  0  0  0  0  0  0  0
   -4.5716    2.4486    0.0000 C   0  0  0  0  0  0  0  0  0  0  0  0
   -4.1833    1.0834    0.0000 C   0  0  0  0  0  0  0  0  0  0  0  0
   -1.2149    4.1457    0.0000 C   0  0  0  0  0  0  0  0  0  0  0  0
   -2.5926    4.4902    0.0000 C   0  0  0  0  0  0  0  0  0  0  0  0
   -4.7782    1.6595    0.0000 N   0  0  0  0  0  0  0  0  0  0  0  0
   -1.8098    4.7219    0.0000 C   0  0  0  0  0  0  0  0  0  0  0  0
   -5.5735    1.4404    0.0000 C   0  0  0  0  0  0  0  0  0  0  0  0
   -6.1685    2.0165    0.0000 C   0  0  0  0  0  0  0  0  0  0  0  0
   -6.9638    1.7973    0.0000 O   0  0  0  0  0  0  0  0  0  0  0  0
   -7.5587    2.3735    0.0000 C   0  0  0  0  0  0  0  0  0  0  0  0
   -8.3541    2.1543    0.0000 C   0  0  0  0  0  0  0  0  0  0  0  0
   -8.5607    1.3652    0.0000 O   0  0  0  0  0  0  0  0  0  0  0  0
   -8.9490    2.7304    0.0000 O   0  0  0  0  0  0  0  0  0  0  0  0
  1  2  1  0  0  0  0
  2  3  2  0  0  0  0
  2  4  1  0  0  0  0
  3  5  1  0  0  0  0
  4  6  2  0  0  0  0
  5  7  2  0  0  0  0
  7  8  1  0  0  0  0
  8  9  1  1  0  0  0
  8 10  1  0  0  0  0
  9 11  1  0  0  0  0
  9 12  1  0  0  0  0
 10 13  2  0  0  0  0
 10 14  1  0  0  0  0
 11 15  1  0  0  0  0
 12 16  1  0  0  0  0
 13 17  1  0  0  0  0
 14 18  2  0  0  0  0
 15 19  1  0  0  0  0
 17 20  2  0  0  0  0
 19 21  1  0  0  0  0
 21 22  1  0  0  0  0
 22 23  1  0  0  0  0
 23 24  1  0  0  0  0
 24 25  1  0  0  0  0
 25 26  2  0  0  0  0
 25 27  1  0  0  0  0
  6  7  1  0  0  0  0
 16 19  1  0  0  0  0
 18 20  1  0  0  0  0
M  END

>  <name>
Cetirizine

>  <ROTATABLE_BONDCOUNT>
8

>  <HBDScore>
0.8333333333333334

>  <dipole>
3.80

>  <logD>
0.65

>  <MPOScore>
5.62697619047619

>  <logDScore>
1.0

>  <MW>
388.89

>  <charge_dist(7.4)>
-0.57

>  <CNS>
FALSE

>  <ArRings>
2

>  <HBD>
1

>  <BALABAN_INDEX>
1.44

>  <bpKa>
7.42

>  <TPSAScore>
1.0

>  <MWScore>
0.7936428571428572

>  <bpKaScore>
1.0

>  <logPScore>
1.0

>  <MPO_area>
88.14

>  <TPSA>
53.01

>  <logP>
0.87

$$$$

  Mrv1722703221715202D          

 28 31  0  0  0  0            999 V2000
    0.0000    0.0000    0.0000 O   0  0  0  0  0  0  0  0  0  0  0  0
   -0.6569    0.5203    0.0000 C   0  0  0  0  0  0  0  0  0  0  0  0
   -1.4308    0.2146    0.0000 O   0  0  0  0  0  0  0  0  0  0  0  0
   -0.5463    1.3463    0.0000 C   0  0  0  0  0  0  0  0  0  0  0  0
    0.2146    1.6650    0.0000 C   0  0  0  0  0  0  0  0  0  0  0  0
    0.3252    2.4910    0.0000 C   0  0  2  0  0  0  0  0  0  0  0  0
    1.0861    2.8097    0.0000 C   0  0  2  0  0  0  0  0  0  0  0  0
   -0.3317    3.0112    0.0000 C   0  0  0  0  0  0  0  0  0  0  0  0
    1.7820    2.3739    0.0000 C   0  0  2  0  0  0  0  0  0  0  0  0
    1.2812    3.6161    0.0000 C   0  0  0  0  0  0  0  0  0  0  0  0
    2.4129    2.9137    0.0000 C   0  0  1  0  0  0  0  0  0  0  0  0
    1.9186    1.5674    0.0000 C   0  0  0  0  0  0  0  0  0  0  0  0
    1.0861    1.9186    0.0000 C   0  0  0  0  0  0  0  0  0  0  0  0
    2.1007    3.6812    0.0000 C   0  0  0  0  0  0  0  0  0  0  0  0
    3.1869    2.6340    0.0000 C   0  0  2  0  0  0  0  0  0  0  0  0
    2.6926    1.2877    0.0000 C   0  0  0  0  0  0  0  0  0  0  0  0
    3.8177    3.1739    0.0000 C   0  0  2  0  0  0  0  0  0  0  0  0
    3.3235    1.8276    0.0000 C   0  0  2  0  0  0  0  0  0  0  0  0
    3.6682    3.9933    0.0000 O   0  0  0  0  0  0  0  0  0  0  0  0
    4.5917    2.8942    0.0000 C   0  0  0  0  0  0  0  0  0  0  0  0
    4.0974    1.5479    0.0000 C   0  0  2  0  0  0  0  0  0  0  0  0
    4.7282    2.0877    0.0000 C   0  0  1  0  0  0  0  0  0  0  0  0
    4.2340    0.7415    0.0000 C   0  0  0  0  0  0  0  0  0  0  0  0
    3.4535    1.0211    0.0000 C   0  0  0  0  0  0  0  0  0  0  0  0
    5.5022    1.8080    0.0000 C   0  0  0  0  0  0  0  0  0  0  0  0
    5.0079    0.4618    0.0000 C   0  0  0  0  0  0  0  0  0  0  0  0
    5.6388    1.0016    0.0000 C   0  0  1  0  0  0  0  0  0  0  0  0
    6.4127    0.7219    0.0000 O   0  0  0  0  0  0  0  0  0  0  0  0
  1  2  2  0  0  0  0
  2  3  1  0  0  0  0
  2  4  1  0  0  0  0
  4  5  1  0  0  0  0
  5  6  1  0  0  0  0
  6  7  1  0  0  0  0
  6  8  1  1  0  0  0
  7  9  1  0  0  0  0
  7 10  1  1  0  0  0
  9 11  1  0  0  0  0
  9 12  1  0  0  0  0
  9 13  1  1  0  0  0
 10 14  1  0  0  0  0
 15 11  1  6  0  0  0
 12 16  1  0  0  0  0
 15 17  1  0  0  0  0
 15 18  1  0  0  0  0
 17 19  1  6  0  0  0
 17 20  1  0  0  0  0
 18 21  1  0  0  0  0
 22 20  1  6  0  0  0
 21 23  1  0  0  0  0
 21 24  1  1  0  0  0
 22 25  1  0  0  0  0
 23 26  1  0  0  0  0
 25 27  1  0  0  0  0
 27 28  1  6  0  0  0
 11 14  1  1  0  0  0
 18 16  1  1  0  0  0
 21 22  1  0  0  0  0
 26 27  1  0  0  0  0
M  END

>  <name>
Chenodiol

>  <ROTATABLE_BONDCOUNT>
4

>  <HBDScore>
0.16666666666666674

>  <dipole>
3.09

>  <logD>
0.98

>  <MPOScore>
4.578952380952381

>  <logDScore>
1.0

>  <MW>
392.580

>  <charge_dist(7.4)>
-1.00

>  <CNS>
FALSE

>  <ArRings>
0

>  <HBD>
3

>  <BALABAN_INDEX>
1.50

>  <bpKa>
-0.54

>  <TPSAScore>
1.0

>  <MWScore>
0.7672857142857143

>  <bpKaScore>
1.0

>  <logPScore>
0.645

>  <MPO_area>
58.94

>  <TPSA>
77.76

>  <logP>
3.71

$$$$

  Mrv1722703221715202D          

 19 19  0  0  0  0            999 V2000
    0.0000    0.0000    0.0000 Cl  0  0  0  0  0  0  0  0  0  0  0  0
    0.5542   -0.6051    0.0000 C   0  0  0  0  0  0  0  0  0  0  0  0
    1.3567   -0.4140    0.0000 C   0  0  0  0  0  0  0  0  0  0  0  0
    1.9109   -1.0191    0.0000 N   0  0  0  0  0  0  0  0  0  0  0  0
    2.7135   -0.8281    0.0000 C   0  0  0  0  0  0  0  0  0  0  0  0
    1.6561   -1.8026    0.0000 C   0  0  0  0  0  0  0  0  0  0  0  0
    3.2676   -1.4332    0.0000 C   0  0  0  0  0  0  0  0  0  0  0  0
    2.9555   -0.0318    0.0000 C   0  0  0  0  0  0  0  0  0  0  0  0
    0.8408   -1.9809    0.0000 C   0  0  0  0  0  0  0  0  0  0  0  0
    4.0701   -1.2421    0.0000 C   0  0  0  0  0  0  0  0  0  0  0  0
    3.7580    0.1592    0.0000 C   0  0  0  0  0  0  0  0  0  0  0  0
    0.5860   -2.7644    0.0000 Cl  0  0  0  0  0  0  0  0  0  0  0  0
    4.3122   -0.4459    0.0000 C   0  0  0  0  0  0  0  0  0  0  0  0
    5.1148   -0.2548    0.0000 C   0  0  0  0  0  0  0  0  0  0  0  0
    5.6690   -0.8599    0.0000 C   0  0  0  0  0  0  0  0  0  0  0  0
    6.4715   -0.6688    0.0000 C   0  0  0  0  0  0  0  0  0  0  0  0
    7.0256   -1.2739    0.0000 C   0  0  0  0  0  0  0  0  0  0  0  0
    6.7709   -2.0574    0.0000 O   0  0  0  0  0  0  0  0  0  0  0  0
    7.8282   -1.0828    0.0000 O   0  0  0  0  0  0  0  0  0  0  0  0
  1  2  1  0  0  0  0
  2  3  1  0  0  0  0
  3  4  1  0  0  0  0
  4  5  1  0  0  0  0
  4  6  1  0  0  0  0
  5  7  2  0  0  0  0
  5  8  1  0  0  0  0
  6  9  1  0  0  0  0
  7 10  1  0  0  0  0
  8 11  2  0  0  0  0
  9 12  1  0  0  0  0
 10 13  2  0  0  0  0
 13 14  1  0  0  0  0
 14 15  1  0  0  0  0
 15 16  1  0  0  0  0
 16 17  1  0  0  0  0
 17 18  2  0  0  0  0
 17 19  1  0  0  0  0
 11 13  1  0  0  0  0
M  END

>  <name>
Chlorambucil

>  <ROTATABLE_BONDCOUNT>
9

>  <HBDScore>
0.8333333333333334

>  <dipole>
4.48

>  <logD>
1.09

>  <MPOScore>
5.363333333333333

>  <logDScore>
1.0

>  <MW>
304.21

>  <charge_dist(7.4)>
-1.00

>  <CNS>
FALSE

>  <ArRings>
1

>  <HBD>
1

>  <BALABAN_INDEX>
2.11

>  <bpKa>
1.72

>  <TPSAScore>
1.0

>  <MWScore>
1.0

>  <bpKaScore>
1.0

>  <logPScore>
0.53

>  <MPO_area>
80.08

>  <TPSA>
40.54

>  <logP>
3.94

$$$$

  Mrv1722703221715202D          

 22 23  0  0  0  0            999 V2000
    0.0000    0.0000    0.0000 Cl  0  0  0  0  0  0  0  0  0  0  0  0
   -0.8220    0.0707    0.0000 C   0  0  0  0  0  0  0  0  0  0  0  0
   -1.2907   -0.5972    0.0000 C   0  0  0  0  0  0  0  0  0  0  0  0
   -1.1815    0.8156    0.0000 C   0  0  0  0  0  0  0  0  0  0  0  0
   -2.1127   -0.5266    0.0000 C   0  0  0  0  0  0  0  0  0  0  0  0
   -2.0035    0.8862    0.0000 C   0  0  0  0  0  0  0  0  0  0  0  0
   -2.5814   -1.1944    0.0000 N   0  0  0  0  0  0  0  0  0  0  0  0
   -2.4723    0.2183    0.0000 C   0  0  0  0  0  0  0  0  0  0  0  0
   -3.4034   -1.1238    0.0000 C   0  0  0  0  0  0  0  0  0  0  0  0
   -3.2943    0.2890    0.0000 C   0  0  0  0  0  0  0  0  0  0  0  0
   -3.7630   -0.3789    0.0000 C   0  0  0  0  0  0  0  0  0  0  0  0
   -3.6538    1.0339    0.0000 N   0  0  0  0  0  0  0  0  0  0  0  0
   -4.4758    1.1045    0.0000 C   0  0  2  0  0  0  0  0  0  0  0  0
   -4.9446    0.4367    0.0000 C   0  0  0  0  0  0  0  0  0  0  0  0
   -4.8354    1.8494    0.0000 C   0  0  0  0  0  0  0  0  0  0  0  0
   -5.7665    0.5073    0.0000 C   0  0  0  0  0  0  0  0  0  0  0  0
   -6.2353   -0.1606    0.0000 C   0  0  0  0  0  0  0  0  0  0  0  0
   -7.0572   -0.0899    0.0000 N   0  0  0  0  0  0  0  0  0  0  0  0
   -7.5260   -0.7577    0.0000 C   0  0  0  0  0  0  0  0  0  0  0  0
   -7.4169    0.6550    0.0000 C   0  0  0  0  0  0  0  0  0  0  0  0
   -8.3480   -0.6871    0.0000 C   0  0  0  0  0  0  0  0  0  0  0  0
   -8.2388    0.7257    0.0000 C   0  0  0  0  0  0  0  0  0  0  0  0
  1  2  1  0  0  0  0
  2  3  2  0  0  0  0
  2  4  1  0  0  0  0
  3  5  1  0  0  0  0
  4  6  2  0  0  0  0
  5  7  2  0  0  0  0
  5  8  1  0  0  0  0
  7  9  1  0  0  0  0
  8 10  2  0  0  0  0
  9 11  2  0  0  0  0
 10 12  1  0  0  0  0
 13 12  1  6  0  0  0
 13 14  1  0  0  0  0
 13 15  1  0  0  0  0
 14 16  1  0  0  0  0
 16 17  1  0  0  0  0
 17 18  1  0  0  0  0
 18 19  1  0  0  0  0
 18 20  1  0  0  0  0
 19 21  1  0  0  0  0
 20 22  1  0  0  0  0
  6  8  1  0  0  0  0
 10 11  1  0  0  0  0
M  END

>  <name>
Chloroquine

>  <ROTATABLE_BONDCOUNT>
8

>  <HBDScore>
0.8333333333333334

>  <dipole>
8.29

>  <logD>
0.88

>  <MPOScore>
3.7763333333333335

>  <logDScore>
1.0

>  <MW>
319.88

>  <charge_dist(7.4)>
1.43

>  <CNS>
FALSE

>  <ArRings>
2

>  <HBD>
1

>  <BALABAN_INDEX>
1.57

>  <bpKa>
10.32

>  <TPSAScore>
0.40800000000000003

>  <MWScore>
1.0

>  <bpKaScore>
0.0

>  <logPScore>
0.5349999999999999

>  <MPO_area>
41.62

>  <TPSA>
28.16

>  <logP>
3.93

$$$$

  Mrv1722703221715202D          

 27 29  0  0  0  0            999 V2000
    0.0000    0.0000    0.0000 Cl  0  0  0  0  0  0  0  0  0  0  0  0
    0.3559    0.7443    0.0000 C   0  0  0  0  0  0  0  0  0  0  0  0
    1.1714    0.8025    0.0000 C   0  0  0  0  0  0  0  0  0  0  0  0
   -0.1100    1.4367    0.0000 C   0  0  0  0  0  0  0  0  0  0  0  0
    1.6244    0.1230    0.0000 C   0  0  0  0  0  0  0  0  0  0  0  0
    1.5274    1.5468    0.0000 C   0  0  0  0  0  0  0  0  0  0  0  0
   -0.9384    1.3914    0.0000 C   0  0  0  0  0  0  0  0  0  0  0  0
    0.2459    2.1810    0.0000 C   0  0  0  0  0  0  0  0  0  0  0  0
    2.4399    0.1812    0.0000 C   0  0  0  0  0  0  0  0  0  0  0  0
    2.3428    1.6050    0.0000 C   0  0  0  0  0  0  0  0  0  0  0  0
   -1.4044    2.0839    0.0000 C   0  0  0  0  0  0  0  0  0  0  0  0
   -1.3073    0.6602    0.0000 C   0  0  0  0  0  0  0  0  0  0  0  0
    1.0614    2.2393    0.0000 C   0  0  0  0  0  0  0  0  0  0  0  0
   -0.2201    2.8735    0.0000 C   0  0  0  0  0  0  0  0  0  0  0  0
    2.7959    0.9255    0.0000 C   0  0  0  0  0  0  0  0  0  0  0  0
   -2.2328    2.0386    0.0000 C   0  0  0  0  0  0  0  0  0  0  0  0
   -2.1357    0.6148    0.0000 C   0  0  0  0  0  0  0  0  0  0  0  0
    1.4173    2.9835    0.0000 C   0  0  0  0  0  0  0  0  0  0  0  0
    0.1359    3.6178    0.0000 C   0  0  0  0  0  0  0  0  0  0  0  0
    3.6113    0.9837    0.0000 O   0  0  0  0  0  0  0  0  0  0  0  0
   -2.6017    1.3073    0.0000 C   0  0  0  0  0  0  0  0  0  0  0  0
    0.9513    3.6760    0.0000 C   0  0  0  0  0  0  0  0  0  0  0  0
    4.0643    0.3042    0.0000 C   0  0  0  0  0  0  0  0  0  0  0  0
   -3.4301    1.2620    0.0000 O   0  0  0  0  0  0  0  0  0  0  0  0
    1.3073    4.4203    0.0000 O   0  0  0  0  0  0  0  0  0  0  0  0
   -3.8961    1.9545    0.0000 C   0  0  0  0  0  0  0  0  0  0  0  0
    2.1228    4.4786    0.0000 C   0  0  0  0  0  0  0  0  0  0  0  0
  1  2  1  0  0  0  0
  2  3  1  0  0  0  0
  2  4  2  0  0  0  0
  3  5  2  0  0  0  0
  3  6  1  0  0  0  0
  4  7  1  0  0  0  0
  4  8  1  0  0  0  0
  5  9  1  0  0  0  0
  6 10  2  0  0  0  0
  7 11  2  0  0  0  0
  7 12  1  0  0  0  0
  8 13  2  0  0  0  0
  8 14  1  0  0  0  0
  9 15  2  0  0  0  0
 11 16  1  0  0  0  0
 12 17  2  0  0  0  0
 13 18  1  0  0  0  0
 14 19  2  0  0  0  0
 15 20  1  0  0  0  0
 16 21  2  0  0  0  0
 18 22  2  0  0  0  0
 20 23  1  0  0  0  0
 21 24  1  0  0  0  0
 22 25  1  0  0  0  0
 24 26  1  0  0  0  0
 25 27  1  0  0  0  0
 10 15  1  0  0  0  0
 17 21  1  0  0  0  0
 19 22  1  0  0  0  0
M  END

>  <name>
Chlorotrianisene

>  <ROTATABLE_BONDCOUNT>
6

>  <HBDScore>
1.0

>  <dipole>
7.18

>  <logD>
5.43

>  <MPOScore>
3.2354285714285713

>  <logDScore>
0.0

>  <MW>
380.87

>  <charge_dist(7.4)>
0.00

>  <CNS>
FALSE

>  <ArRings>
3

>  <HBD>
0

>  <BALABAN_INDEX>
1.60

>  <bpKa>
-4.35

>  <TPSAScore>
0.38450000000000006

>  <MWScore>
0.8509285714285714

>  <bpKaScore>
1.0

>  <logPScore>
0.0

>  <MPO_area>
36.3

>  <TPSA>
27.69

>  <logP>
5.43

$$$$

  Mrv1722703221715202D          

 16 16  0  0  0  0            999 V2000
    0.0000    0.0000    0.0000 Cl  0  0  0  0  0  0  0  0  0  0  0  0
    0.7619    0.3164    0.0000 C   0  0  0  0  0  0  0  0  0  0  0  0
    1.4076   -0.1872    0.0000 C   0  0  0  0  0  0  0  0  0  0  0  0
    0.8717    1.1429    0.0000 C   0  0  0  0  0  0  0  0  0  0  0  0
    2.1696    0.1291    0.0000 C   0  0  0  0  0  0  0  0  0  0  0  0
    1.6336    1.4593    0.0000 C   0  0  0  0  0  0  0  0  0  0  0  0
    2.2793    0.9557    0.0000 C   0  0  0  0  0  0  0  0  0  0  0  0
    3.0412    1.2720    0.0000 O   0  0  0  0  0  0  0  0  0  0  0  0
    3.6869    0.7684    0.0000 C   0  0  0  0  0  0  0  0  0  0  0  0
    4.4489    1.0848    0.0000 C   0  0  1  0  0  0  0  0  0  0  0  0
    4.5587    1.9113    0.0000 O   0  0  0  0  0  0  0  0  0  0  0  0
    5.0946    0.5811    0.0000 C   0  0  0  0  0  0  0  0  0  0  0  0
    5.8565    0.8975    0.0000 O   0  0  0  0  0  0  0  0  0  0  0  0
    6.5022    0.3939    0.0000 C   0  0  0  0  0  0  0  0  0  0  0  0
    6.3795   -0.4197    0.0000 O   0  0  0  0  0  0  0  0  0  0  0  0
    7.2641    0.7103    0.0000 N   0  0  0  0  0  0  0  0  0  0  0  0
  1  2  1  0  0  0  0
  2  3  2  0  0  0  0
  2  4  1  0  0  0  0
  3  5  1  0  0  0  0
  4  6  2  0  0  0  0
  5  7  2  0  0  0  0
  7  8  1  0  0  0  0
  8  9  1  0  0  0  0
  9 10  1  0  0  0  0
 10 11  1  1  0  0  0
 10 12  1  0  0  0  0
 12 13  1  0  0  0  0
 13 14  1  0  0  0  0
 14 15  2  0  0  0  0
 14 16  1  0  0  0  0
  6  7  1  0  0  0  0
M  END

>  <name>
Chlorphenesin_carbamate

>  <ROTATABLE_BONDCOUNT>
6

>  <HBDScore>
0.5

>  <dipole>
4.79

>  <logD>
1.21

>  <MPOScore>
5.5

>  <logDScore>
1.0

>  <MW>
245.66

>  <charge_dist(7.4)>
-0.00

>  <CNS>
FALSE

>  <ArRings>
1

>  <HBD>
2

>  <BALABAN_INDEX>
2.05

>  <bpKa>
-3.4

>  <TPSAScore>
1.0

>  <MWScore>
1.0

>  <bpKaScore>
1.0

>  <logPScore>
1.0

>  <MPO_area>
83.33

>  <TPSA>
81.78

>  <logP>
1.21

$$$$

  Mrv1722703221715202D          

 17 17  0  0  0  0            999 V2000
    0.0000    0.0000    0.0000 Cl  0  0  0  0  0  0  0  0  0  0  0  0
    0.7862   -0.2429    0.0000 C   0  0  0  0  0  0  0  0  0  0  0  0
    0.9651   -1.0482    0.0000 C   0  0  0  0  0  0  0  0  0  0  0  0
    1.3933    0.3260    0.0000 C   0  0  0  0  0  0  0  0  0  0  0  0
    1.7513   -1.2911    0.0000 C   0  0  0  0  0  0  0  0  0  0  0  0
    2.1795    0.0831    0.0000 C   0  0  0  0  0  0  0  0  0  0  0  0
    2.3585   -0.7222    0.0000 C   0  0  0  0  0  0  0  0  0  0  0  0
    3.1447   -0.9651    0.0000 S   0  0  0  0  0  0  0  0  0  0  0  0
    2.8890   -1.7513    0.0000 O   0  0  0  0  0  0  0  0  0  0  0  0
    3.3875   -0.1662    0.0000 O   0  0  0  0  0  0  0  0  0  0  0  0
    3.9308   -1.2080    0.0000 N   0  0  0  0  0  0  0  0  0  0  0  0
    4.5380   -0.6391    0.0000 C   0  0  0  0  0  0  0  0  0  0  0  0
    4.3462    0.1790    0.0000 O   0  0  0  0  0  0  0  0  0  0  0  0
    5.3242   -0.8821    0.0000 N   0  0  0  0  0  0  0  0  0  0  0  0
    5.9313   -0.3132    0.0000 C   0  0  0  0  0  0  0  0  0  0  0  0
    6.7176   -0.5561    0.0000 C   0  0  0  0  0  0  0  0  0  0  0  0
    7.3247    0.0128    0.0000 C   0  0  0  0  0  0  0  0  0  0  0  0
  1  2  1  0  0  0  0
  2  3  2  0  0  0  0
  2  4  1  0  0  0  0
  3  5  1  0  0  0  0
  4  6  2  0  0  0  0
  5  7  2  0  0  0  0
  7  8  1  0  0  0  0
  8  9  2  0  0  0  0
  8 10  2  0  0  0  0
  8 11  1  0  0  0  0
 11 12  1  0  0  0  0
 12 13  2  0  0  0  0
 12 14  1  0  0  0  0
 14 15  1  0  0  0  0
 15 16  1  0  0  0  0
 16 17  1  0  0  0  0
  6  7  1  0  0  0  0
M  END

>  <name>
Chlorpropamide

>  <ROTATABLE_BONDCOUNT>
3

>  <HBDScore>
0.5

>  <dipole>
8.34

>  <logD>
1.00

>  <MPOScore>
5.5

>  <logDScore>
1.0

>  <MW>
276.74

>  <charge_dist(7.4)>
-1.00

>  <CNS>
FALSE

>  <ArRings>
1

>  <HBD>
2

>  <BALABAN_INDEX>
2.24

>  <bpKa>
0.0

>  <TPSAScore>
1.0

>  <MWScore>
1.0

>  <bpKaScore>
1.0

>  <logPScore>
1.0

>  <MPO_area>
83.33

>  <TPSA>
75.27

>  <logP>
1.94

$$$$

  Mrv1722703221715202D          

 22 24  0  0  0  0            999 V2000
    0.0000    0.0000    0.0000 Cl  0  0  0  0  0  0  0  0  0  0  0  0
    0.7968   -0.2138    0.0000 C   0  0  0  0  0  0  0  0  0  0  0  0
    0.9976   -1.0106    0.0000 C   0  0  0  0  0  0  0  0  0  0  0  0
    1.3863    0.3757    0.0000 C   0  0  0  0  0  0  0  0  0  0  0  0
    0.3952   -1.5871    0.0000 S   0  0  0  0  0  0  0  0  0  0  0  0
    1.7944   -1.2243    0.0000 C   0  0  0  0  0  0  0  0  0  0  0  0
    2.1831    0.1619    0.0000 C   0  0  0  0  0  0  0  0  0  0  0  0
   -0.1944   -0.9847    0.0000 O   0  0  0  0  0  0  0  0  0  0  0  0
    0.9717   -2.1766    0.0000 O   0  0  0  0  0  0  0  0  0  0  0  0
   -0.2073   -2.1636    0.0000 N   0  0  0  0  0  0  0  0  0  0  0  0
    2.3839   -0.6348    0.0000 C   0  0  0  0  0  0  0  0  0  0  0  0
    3.1807   -0.8486    0.0000 C   0  0  2  0  0  0  0  0  0  0  0  0
    2.8698   -1.6130    0.0000 O   0  0  0  0  0  0  0  0  0  0  0  0
    3.3102   -0.0194    0.0000 N   0  0  0  0  0  0  0  0  0  0  0  0
    3.9127   -1.2243    0.0000 C   0  0  0  0  0  0  0  0  0  0  0  0
    4.1265    0.1101    0.0000 C   0  0  0  0  0  0  0  0  0  0  0  0
    4.5022   -0.6348    0.0000 C   0  0  0  0  0  0  0  0  0  0  0  0
    4.1135   -2.0211    0.0000 C   0  0  0  0  0  0  0  0  0  0  0  0
    4.5022    0.8551    0.0000 O   0  0  0  0  0  0  0  0  0  0  0  0
    5.2990   -0.8486    0.0000 C   0  0  0  0  0  0  0  0  0  0  0  0
    4.9103   -2.2349    0.0000 C   0  0  0  0  0  0  0  0  0  0  0  0
    5.4998   -1.6454    0.0000 C   0  0  0  0  0  0  0  0  0  0  0  0
  1  2  1  0  0  0  0
  2  3  2  0  0  0  0
  2  4  1  0  0  0  0
  3  5  1  0  0  0  0
  3  6  1  0  0  0  0
  4  7  2  0  0  0  0
  5  8  2  0  0  0  0
  5  9  2  0  0  0  0
  5 10  1  0  0  0  0
  6 11  2  0  0  0  0
 11 12  1  0  0  0  0
 12 13  1  1  0  0  0
 12 14  1  0  0  0  0
 12 15  1  0  0  0  0
 14 16  1  0  0  0  0
 15 17  2  0  0  0  0
 15 18  1  0  0  0  0
 16 19  2  0  0  0  0
 17 20  1  0  0  0  0
 18 21  2  0  0  0  0
 20 22  2  0  0  0  0
  7 11  1  0  0  0  0
 16 17  1  0  0  0  0
 21 22  1  0  0  0  0
M  END

>  <name>
Chlorthalidone

>  <ROTATABLE_BONDCOUNT>
2

>  <HBDScore>
0.16666666666666674

>  <dipole>
6.56

>  <logD>
1.59

>  <MPOScore>
4.517

>  <logDScore>
1.0

>  <MW>
338.76

>  <charge_dist(7.4)>
-0.06

>  <CNS>
FALSE

>  <ArRings>
2

>  <HBD>
3

>  <BALABAN_INDEX>
1.80

>  <bpKa>
-2.59

>  <TPSAScore>
0.3503333333333335

>  <MWScore>
1.0

>  <bpKaScore>
1.0

>  <logPScore>
1.0

>  <MPO_area>
59.59

>  <TPSA>
109.49

>  <logP>
1.60

$$$$

  Mrv1722703221715202D          

 17 17  0  0  0  0            999 V2000
    0.0000    0.0000    0.0000 S   0  0  0  0  0  0  0  0  0  0  0  0
    0.7416   -0.3383    0.0000 C   0  0  0  0  0  0  0  0  0  0  0  0
   -0.6830   -0.4684    0.0000 C   0  0  0  0  0  0  0  0  0  0  0  0
    1.4116    0.1431    0.0000 C   0  0  0  0  0  0  0  0  0  0  0  0
   -1.4376   -0.1171    0.0000 C   0  0  0  0  0  0  0  0  0  0  0  0
    1.4181    0.9758    0.0000 N   0  0  0  0  0  0  0  0  0  0  0  0
    2.1857   -0.1171    0.0000 C   0  0  0  0  0  0  0  0  0  0  0  0
   -2.1207   -0.5854    0.0000 N   0  0  0  0  0  0  0  0  0  0  0  0
    2.1987    1.2230    0.0000 C   0  0  0  0  0  0  0  0  0  0  0  0
    2.6736    0.5529    0.0000 N   0  0  0  0  0  2  0  0  0  0  0  0
    2.4199   -0.8977    0.0000 C   0  0  0  0  0  0  0  0  0  0  0  0
   -2.8752   -0.2342    0.0000 C   0  0  0  0  0  0  0  0  0  0  0  0
   -3.5583   -0.7026    0.0000 N   0  0  0  0  0  0  0  0  0  0  0  0
   -2.9533    0.5985    0.0000 N   0  0  0  0  0  0  0  0  0  0  0  0
   -4.3129   -0.3513    0.0000 C   0  0  0  0  0  0  0  0  0  0  0  0
   -3.7079    0.9497    0.0000 C   0  0  0  0  0  0  0  0  0  0  0  0
   -4.4625    1.3010    0.0000 N   0  0  0  0  0  0  0  0  0  0  0  0
  1  2  1  0  0  0  0
  1  3  1  0  0  0  0
  2  4  1  0  0  0  0
  3  5  1  0  0  0  0
  4  6  1  0  0  0  0
  4  7  2  0  0  0  0
  5  8  1  0  0  0  0
  6  9  2  0  0  0  0
  7 10  1  0  0  0  0
  7 11  1  0  0  0  0
  8 12  1  0  0  0  0
 12 13  2  0  0  0  0
 12 14  1  0  0  0  0
 13 15  1  0  0  0  0
 14 16  1  0  0  0  0
 16 17  3  0  0  0  0
  9 10  1  0  0  0  0
M  RAD  1  10   2
M  END

>  <name>
Cimetidine

>  <ROTATABLE_BONDCOUNT>
5

>  <HBDScore>
0.5

>  <logD>
-0.31

>  <MPOScore>
5.5

>  <logDScore>
1.0

>  <MW>
251.33

>  <charge_dist(7.4)>
0.00

>  <CNS>
FALSE

>  <ArRings>
1

>  <HBD>
2

>  <BALABAN_INDEX>
1.85

>  <bpKa>
4.56

>  <TPSAScore>
1.0

>  <MWScore>
1.0

>  <bpKaScore>
1.0

>  <logPScore>
1.0

>  <MPO_area>
83.33

>  <TPSA>
85.99

>  <logP>
-0.31

$$$$

  Mrv1722703221715202D          

 19 21  0  0  0  0            999 V2000
    0.0000    0.0000    0.0000 O   0  0  0  0  0  0  0  0  0  0  0  0
   -0.1038   -0.8176    0.0000 C   0  0  0  0  0  0  0  0  0  0  0  0
    0.5581   -1.3043    0.0000 C   0  0  0  0  0  0  0  0  0  0  0  0
   -0.8696   -1.1421    0.0000 C   0  0  0  0  0  0  0  0  0  0  0  0
    0.4542   -2.1219    0.0000 N   0  0  0  0  0  0  0  0  0  0  0  0
    1.3108   -0.9669    0.0000 C   0  0  0  0  0  0  0  0  0  0  0  0
   -0.9734   -1.9597    0.0000 C   0  0  0  0  0  0  0  0  0  0  0  0
   -1.5444   -0.6424    0.0000 C   0  0  0  0  0  0  0  0  0  0  0  0
   -0.3115   -2.4464    0.0000 N   0  0  0  0  0  0  0  0  0  0  0  0
    1.4016   -0.1363    0.0000 O   0  0  0  0  0  0  0  0  0  0  0  0
    1.9727   -1.4535    0.0000 O   0  0  0  0  0  0  0  0  0  0  0  0
   -1.7391   -2.2842    0.0000 C   0  0  0  0  0  0  0  0  0  0  0  0
   -2.3101   -0.9669    0.0000 C   0  0  0  0  0  0  0  0  0  0  0  0
   -0.4153   -3.2640    0.0000 C   0  0  0  0  0  0  0  0  0  0  0  0
   -2.4139   -1.7845    0.0000 C   0  0  0  0  0  0  0  0  0  0  0  0
   -3.0694   -0.6164    0.0000 O   0  0  0  0  0  0  0  0  0  0  0  0
    0.2466   -3.7507    0.0000 C   0  0  0  0  0  0  0  0  0  0  0  0
   -3.2316   -1.9402    0.0000 O   0  0  0  0  0  0  0  0  0  0  0  0
   -3.6339   -1.2200    0.0000 C   0  0  0  0  0  0  0  0  0  0  0  0
  1  2  2  0  0  0  0
  2  3  1  0  0  0  0
  2  4  1  0  0  0  0
  3  5  2  0  0  0  0
  3  6  1  0  0  0  0
  4  7  2  0  0  0  0
  4  8  1  0  0  0  0
  5  9  1  0  0  0  0
  6 10  2  0  0  0  0
  6 11  1  0  0  0  0
  7 12  1  0  0  0  0
  8 13  2  0  0  0  0
  9 14  1  0  0  0  0
 12 15  2  0  0  0  0
 13 16  1  0  0  0  0
 14 17  1  0  0  0  0
 15 18  1  0  0  0  0
 16 19  1  0  0  0  0
  7  9  1  0  0  0  0
 13 15  1  0  0  0  0
 18 19  1  0  0  0  0
M  END

>  <name>
Cinoxacin

>  <ROTATABLE_BONDCOUNT>
2

>  <HBDScore>
0.8333333333333334

>  <dipole>
13.37

>  <logD>
-0.72

>  <MPOScore>
5.833333333333333

>  <logDScore>
1.0

>  <MW>
262.221

>  <charge_dist(7.4)>
-1.00

>  <CNS>
FALSE

>  <ArRings>
2

>  <HBD>
1

>  <BALABAN_INDEX>
1.72

>  <bpKa>
-4.71

>  <TPSAScore>
1.0

>  <MWScore>
1.0

>  <bpKaScore>
1.0

>  <logPScore>
1.0

>  <MPO_area>
94.44

>  <TPSA>
88.43

>  <logP>
1.72

$$$$

  Mrv1722703221715202D          

 24 27  0  0  0  0            999 V2000
    0.0000    0.0000    0.0000 F   0  0  0  0  0  0  0  0  0  0  0  0
   -0.5454    0.6278    0.0000 C   0  0  0  0  0  0  0  0  0  0  0  0
   -0.2854    1.4078    0.0000 C   0  0  0  0  0  0  0  0  0  0  0  0
   -1.3570    0.4756    0.0000 C   0  0  0  0  0  0  0  0  0  0  0  0
    0.5136    1.5726    0.0000 N   0  0  0  0  0  0  0  0  0  0  0  0
   -0.8307    2.0356    0.0000 C   0  0  0  0  0  0  0  0  0  0  0  0
   -1.9024    1.1034    0.0000 C   0  0  0  0  0  0  0  0  0  0  0  0
    1.0463    0.9575    0.0000 C   0  0  0  0  0  0  0  0  0  0  0  0
    0.7736    2.3526    0.0000 C   0  0  0  0  0  0  0  0  0  0  0  0
   -1.6424    1.8834    0.0000 C   0  0  0  0  0  0  0  0  0  0  0  0
   -2.7140    0.9512    0.0000 C   0  0  0  0  0  0  0  0  0  0  0  0
    1.8453    1.1224    0.0000 C   0  0  0  0  0  0  0  0  0  0  0  0
    1.5726    2.5175    0.0000 C   0  0  0  0  0  0  0  0  0  0  0  0
   -2.1877    2.5111    0.0000 N   0  0  0  0  0  0  0  0  0  0  0  0
   -2.9867    0.1839    0.0000 O   0  0  0  0  0  0  0  0  0  0  0  0
   -3.2594    1.5790    0.0000 C   0  0  0  0  0  0  0  0  0  0  0  0
    2.1053    1.9024    0.0000 N   0  0  0  0  0  0  0  0  0  0  0  0
   -2.9994    2.3590    0.0000 C   0  0  0  0  0  0  0  0  0  0  0  0
   -1.9278    3.2911    0.0000 C   0  0  0  0  0  0  0  0  0  0  0  0
   -4.0711    1.4268    0.0000 C   0  0  0  0  0  0  0  0  0  0  0  0
   -2.0926    4.1028    0.0000 C   0  0  0  0  0  0  0  0  0  0  0  0
   -1.3126    3.8364    0.0000 C   0  0  0  0  0  0  0  0  0  0  0  0
   -4.3438    0.6595    0.0000 O   0  0  0  0  0  0  0  0  0  0  0  0
   -4.6164    2.0546    0.0000 O   0  0  0  0  0  0  0  0  0  0  0  0
  1  2  1  0  0  0  0
  2  3  2  0  0  0  0
  2  4  1  0  0  0  0
  3  5  1  0  0  0  0
  3  6  1  0  0  0  0
  4  7  2  0  0  0  0
  5  8  1  0  0  0  0
  5  9  1  0  0  0  0
  6 10  2  0  0  0  0
  7 11  1  0  0  0  0
  8 12  1  0  0  0  0
  9 13  1  0  0  0  0
 10 14  1  0  0  0  0
 11 15  2  0  0  0  0
 11 16  1  0  0  0  0
 12 17  1  0  0  0  0
 14 18  1  0  0  0  0
 14 19  1  0  0  0  0
 16 20  1  0  0  0  0
 19 21  1  0  0  0  0
 19 22  1  0  0  0  0
 20 23  2  0  0  0  0
 20 24  1  0  0  0  0
  7 10  1  0  0  0  0
 13 17  1  0  0  0  0
 16 18  2  0  0  0  0
 21 22  1  0  0  0  0
M  END

>  <name>
Ciprofloxacin

>  <ROTATABLE_BONDCOUNT>
3

>  <HBDScore>
0.5

>  <dipole>
16.49

>  <logD>
-0.81

>  <MPOScore>
5.16

>  <logDScore>
1.0

>  <MW>
331.347

>  <charge_dist(7.4)>
-0.01

>  <CNS>
FALSE

>  <ArRings>
2

>  <HBD>
2

>  <BALABAN_INDEX>
1.42

>  <bpKa>
8.68

>  <TPSAScore>
1.0

>  <MWScore>
1.0

>  <bpKaScore>
0.6600000000000001

>  <logPScore>
1.0

>  <MPO_area>
74.83

>  <TPSA>
72.88

>  <logP>
-0.81

$$$$

  Mrv1722703221715202D          

 32 34  0  0  0  0            999 V2000
    0.0000    0.0000    0.0000 Cl  0  0  0  0  0  0  0  0  0  0  0  0
   -0.5710    0.5961    0.0000 C   0  0  0  0  0  0  0  0  0  0  0  0
   -0.3452    1.3868    0.0000 C   0  0  0  0  0  0  0  0  0  0  0  0
   -1.3743    0.4079    0.0000 C   0  0  0  0  0  0  0  0  0  0  0  0
    0.4455    1.5877    0.0000 N   0  0  0  0  0  0  0  0  0  0  0  0
   -0.9162    1.9830    0.0000 C   0  0  0  0  0  0  0  0  0  0  0  0
   -1.9454    1.0041    0.0000 C   0  0  0  0  0  0  0  0  0  0  0  0
   -1.7194    1.7947    0.0000 C   0  0  0  0  0  0  0  0  0  0  0  0
   -2.7486    0.8158    0.0000 C   0  0  0  0  0  0  0  0  0  0  0  0
   -2.2905    2.3909    0.0000 O   0  0  0  0  0  0  0  0  0  0  0  0
   -2.9870    0.0377    0.0000 O   0  0  0  0  0  0  0  0  0  0  0  0
   -3.3196    1.4119    0.0000 N   0  0  0  0  0  0  0  0  0  0  0  0
   -2.0646    3.1816    0.0000 C   0  0  0  0  0  0  0  0  0  0  0  0
   -4.1229    1.2237    0.0000 C   0  0  0  0  0  0  0  0  0  0  0  0
   -4.3614    0.4455    0.0000 C   0  0  0  0  0  0  0  0  0  0  0  0
   -4.6939    1.8198    0.0000 C   0  0  0  0  0  0  0  0  0  0  0  0
   -3.8028   -0.1381    0.0000 O   0  0  0  0  0  0  0  0  0  0  0  0
   -5.1646    0.2573    0.0000 C   0  0  0  0  0  0  0  0  0  0  0  0
   -5.4972    1.6316    0.0000 C   0  0  0  0  0  0  0  0  0  0  0  0
   -4.0413   -0.9162    0.0000 C   0  0  0  0  0  0  0  0  0  0  0  0
   -5.7356    0.8534    0.0000 N   0  0  0  0  0  0  0  0  0  0  0  0
   -6.5388    0.6652    0.0000 C   0  0  0  0  0  0  0  0  0  0  0  0
   -7.1099    1.2614    0.0000 C   0  0  0  0  0  0  0  0  0  0  0  0
   -7.9132    1.0731    0.0000 C   0  0  0  0  0  0  0  0  0  0  0  0
   -8.4842    1.6692    0.0000 O   0  0  0  0  0  0  0  0  0  0  0  0
   -9.2874    1.4810    0.0000 C   0  0  0  0  0  0  0  0  0  0  0  0
   -9.8585    2.0771    0.0000 C   0  0  0  0  0  0  0  0  0  0  0  0
   -9.5259    0.7028    0.0000 C   0  0  0  0  0  0  0  0  0  0  0  0
  -10.6617    1.8889    0.0000 C   0  0  0  0  0  0  0  0  0  0  0  0
  -10.3292    0.5146    0.0000 C   0  0  0  0  0  0  0  0  0  0  0  0
  -10.9002    1.1107    0.0000 C   0  0  0  0  0  0  0  0  0  0  0  0
  -11.7034    0.9224    0.0000 F   0  0  0  0  0  0  0  0  0  0  0  0
  1  2  1  0  0  0  0
  2  3  2  0  0  0  0
  2  4  1  0  0  0  0
  3  5  1  0  0  0  0
  3  6  1  0  0  0  0
  4  7  2  0  0  0  0
  6  8  2  0  0  0  0
  7  9  1  0  0  0  0
  8 10  1  0  0  0  0
  9 11  2  0  0  0  0
  9 12  1  0  0  0  0
 10 13  1  0  0  0  0
 12 14  1  0  0  0  0
 14 15  1  0  0  0  0
 14 16  1  0  0  0  0
 15 17  1  0  0  0  0
 15 18  1  0  0  0  0
 16 19  1  0  0  0  0
 17 20  1  0  0  0  0
 18 21  1  0  0  0  0
 21 22  1  0  0  0  0
 22 23  1  0  0  0  0
 23 24  1  0  0  0  0
 24 25  1  0  0  0  0
 25 26  1  0  0  0  0
 26 27  2  0  0  0  0
 26 28  1  0  0  0  0
 27 29  1  0  0  0  0
 28 30  2  0  0  0  0
 29 31  2  0  0  0  0
 31 32  1  0  0  0  0
  7  8  1  0  0  0  0
 19 21  1  0  0  0  0
 30 31  1  0  0  0  0
M  END

>  <name>
Cisapride

>  <ROTATABLE_BONDCOUNT>
9

>  <HBDScore>
0.5

>  <dipole>
8.52

>  <logD>
1.59

>  <MPOScore>
4.623214285714286

>  <logDScore>
1.0

>  <MW>
465.95

>  <charge_dist(7.4)>
0.87

>  <CNS>
FALSE

>  <ArRings>
2

>  <HBD>
2

>  <BALABAN_INDEX>
1.31

>  <bpKa>
8.24

>  <TPSAScore>
1.0

>  <MWScore>
0.24321428571428583

>  <bpKaScore>
0.8799999999999999

>  <logPScore>
1.0

>  <MPO_area>
61.41

>  <TPSA>
86.05

>  <logP>
2.49

$$$$

  Mrv1722703221715202D          

 14 15  0  0  0  0            999 V2000
    0.0000    0.0000    0.0000 O   0  0  0  0  0  0  0  0  0  0  0  0
   -0.7151    0.4123    0.0000 C   0  0  0  0  0  0  0  0  0  0  0  0
   -1.5139    0.2061    0.0000 N   0  0  0  0  0  0  0  0  0  0  0  0
   -0.9341    1.2111    0.0000 C   0  0  0  0  0  0  0  0  0  0  0  0
   -2.2032   -0.2384    0.0000 C   0  0  2  0  0  0  0  0  0  0  0  0
   -1.7330    1.0050    0.0000 C   0  0  1  0  0  0  0  0  0  0  0  0
   -2.8475    0.2835    0.0000 C   0  0  0  0  0  0  0  0  0  0  0  0
   -2.2483   -1.0501    0.0000 C   0  0  0  0  0  0  0  0  0  0  0  0
   -2.5576    1.0501    0.0000 O   0  0  0  0  0  0  0  0  0  0  0  0
   -3.6463    0.0773    0.0000 C   0  0  0  0  0  0  0  0  0  0  0  0
   -2.9827   -1.4173    0.0000 O   0  0  0  0  0  0  0  0  0  0  0  0
   -1.5655   -1.4881    0.0000 O   0  0  0  0  0  0  0  0  0  0  0  0
   -4.2325    0.6636    0.0000 C   0  0  0  0  0  0  0  0  0  0  0  0
   -5.0313    0.4574    0.0000 O   0  0  0  0  0  0  0  0  0  0  0  0
  1  2  2  0  0  0  0
  2  3  1  0  0  0  0
  2  4  1  0  0  0  0
  3  5  1  0  0  0  0
  3  6  1  0  0  0  0
  5  7  1  0  0  0  0
  5  8  1  1  0  0  0
  6  9  1  6  0  0  0
  7 10  2  0  0  0  0
  8 11  2  0  0  0  0
  8 12  1  0  0  0  0
 10 13  1  0  0  0  0
 13 14  1  0  0  0  0
  4  6  1  0  0  0  0
  7  9  1  0  0  0  0
M  END

>  <name>
Clavulanate

>  <ROTATABLE_BONDCOUNT>
2

>  <HBDScore>
0.5

>  <dipole>
4.09

>  <logD>
-4.94

>  <MPOScore>
5.5

>  <logDScore>
1.0

>  <MW>
199.162

>  <charge_dist(7.4)>
-1.00

>  <CNS>
FALSE

>  <ArRings>
0

>  <HBD>
2

>  <BALABAN_INDEX>
2.05

>  <bpKa>
-2.57

>  <TPSAScore>
1.0

>  <MWScore>
1.0

>  <bpKaScore>
1.0

>  <logPScore>
1.0

>  <MPO_area>
83.33

>  <TPSA>
87.07

>  <logP>
-1.52

$$$$

  Mrv1722703221715202D          

 27 28  0  0  0  0            999 V2000
    0.0000    0.0000    0.0000 Cl  0  0  0  0  0  0  0  0  0  0  0  0
   -0.7742    0.2903    0.0000 C   0  0  1  0  0  0  0  0  0  0  0  0
   -0.9161    1.1032    0.0000 C   0  0  2  0  0  0  0  0  0  0  0  0
   -1.4129   -0.2258    0.0000 C   0  0  0  0  0  0  0  0  0  0  0  0
   -1.6903    1.3935    0.0000 N   0  0  0  0  0  0  0  0  0  0  0  0
   -0.2903    1.6322    0.0000 C   0  0  2  0  0  0  0  0  0  0  0  0
   -2.3290    0.8774    0.0000 C   0  0  0  0  0  0  0  0  0  0  0  0
    0.4710    1.3548    0.0000 O   0  0  0  0  0  0  0  0  0  0  0  0
   -0.4322    2.4451    0.0000 C   0  0  1  0  0  0  0  0  0  0  0  0
   -2.1999    0.0774    0.0000 O   0  0  0  0  0  0  0  0  0  0  0  0
   -3.1032    1.1677    0.0000 C   0  0  2  0  0  0  0  0  0  0  0  0
    1.0967    1.8838    0.0000 C   0  0  1  0  0  0  0  0  0  0  0  0
   -1.2064    2.7354    0.0000 O   0  0  0  0  0  0  0  0  0  0  0  0
    0.1935    2.9741    0.0000 C   0  0  2  0  0  0  0  0  0  0  0  0
   -3.7935    0.7161    0.0000 N   0  0  0  0  0  0  0  0  0  0  0  0
   -3.3289    1.9612    0.0000 C   0  0  0  0  0  0  0  0  0  0  0  0
    1.8580    1.6064    0.0000 S   0  0  0  0  0  0  0  0  0  0  0  0
    0.9548    2.6967    0.0000 C   0  0  2  0  0  0  0  0  0  0  0  0
    0.0516    3.7870    0.0000 O   0  0  0  0  0  0  0  0  0  0  0  0
   -4.4450    1.2322    0.0000 C   0  0  0  0  0  0  0  0  0  0  0  0
   -3.8321   -0.0967    0.0000 C   0  0  0  0  0  0  0  0  0  0  0  0
   -4.1547    2.0000    0.0000 C   0  0  1  0  0  0  0  0  0  0  0  0
    1.9870    0.8064    0.0000 C   0  0  0  0  0  0  0  0  0  0  0  0
    1.5806    3.2257    0.0000 O   0  0  0  0  0  0  0  0  0  0  0  0
   -4.6192    2.6903    0.0000 C   0  0  0  0  0  0  0  0  0  0  0  0
   -4.2644    3.4322    0.0000 C   0  0  0  0  0  0  0  0  0  0  0  0
   -4.7289    4.1225    0.0000 C   0  0  0  0  0  0  0  0  0  0  0  0
  2  1  1  6  0  0  0
  2  3  1  0  0  0  0
  2  4  1  0  0  0  0
  3  5  1  6  0  0  0
  3  6  1  0  0  0  0
  5  7  1  0  0  0  0
  6  8  1  1  0  0  0
  6  9  1  0  0  0  0
  7 10  2  0  0  0  0
 11  7  1  6  0  0  0
  8 12  1  0  0  0  0
  9 13  1  1  0  0  0
  9 14  1  0  0  0  0
 11 15  1  0  0  0  0
 11 16  1  0  0  0  0
 12 17  1  6  0  0  0
 12 18  1  0  0  0  0
 14 19  1  1  0  0  0
 15 20  1  0  0  0  0
 15 21  1  0  0  0  0
 16 22  1  0  0  0  0
 17 23  1  0  0  0  0
 18 24  1  6  0  0  0
 22 25  1  1  0  0  0
 25 26  1  0  0  0  0
 26 27  1  0  0  0  0
 14 18  1  0  0  0  0
 20 22  1  0  0  0  0
M  END

>  <name>
Clindamycin

>  <ROTATABLE_BONDCOUNT>
7

>  <HBDScore>
0.0

>  <dipole>
5.07

>  <logD>
0.65

>  <MPOScore>
4.127190476190476

>  <logDScore>
1.0

>  <MW>
424.98

>  <charge_dist(7.4)>
0.59

>  <CNS>
FALSE

>  <ArRings>
0

>  <HBD>
4

>  <BALABAN_INDEX>
2.01

>  <bpKa>
7.55

>  <TPSAScore>
0.5913333333333332

>  <MWScore>
0.5358571428571428

>  <bpKaScore>
1.0

>  <logPScore>
1.0

>  <MPO_area>
48.47

>  <TPSA>
102.26

>  <logP>
1.04

$$$$

  Mrv1722703221715202D          

 33 37  0  0  0  0            999 V2000
    0.0000    0.0000    0.0000 Cl  0  0  0  0  0  0  0  0  0  0  0  0
   -0.6812    0.4755    0.0000 C   0  0  0  0  0  0  0  0  0  0  0  0
   -1.4266    0.1350    0.0000 C   0  0  0  0  0  0  0  0  0  0  0  0
   -0.6169    1.2980    0.0000 C   0  0  0  0  0  0  0  0  0  0  0  0
   -2.1077    0.6104    0.0000 C   0  0  0  0  0  0  0  0  0  0  0  0
   -1.2980    1.7735    0.0000 C   0  0  0  0  0  0  0  0  0  0  0  0
   -2.0434    1.4330    0.0000 C   0  0  0  0  0  0  0  0  0  0  0  0
   -2.7246    1.9085    0.0000 N   0  0  0  0  0  0  0  0  0  0  0  0
   -3.4700    1.5679    0.0000 C   0  0  0  0  0  0  0  0  0  0  0  0
   -2.6603    2.7310    0.0000 C   0  0  0  0  0  0  0  0  0  0  0  0
   -4.1512    2.0434    0.0000 C   0  0  0  0  0  0  0  0  0  0  0  0
   -3.5471    0.7582    0.0000 C   0  0  0  0  0  0  0  0  0  0  0  0
   -3.3414    3.2065    0.0000 C   0  0  0  0  0  0  0  0  0  0  0  0
   -1.9278    3.0845    0.0000 C   0  0  0  0  0  0  0  0  0  0  0  0
   -4.0869    2.8660    0.0000 N   0  0  0  0  0  0  0  0  0  0  0  0
   -4.8966    1.7029    0.0000 C   0  0  0  0  0  0  0  0  0  0  0  0
   -4.2925    0.4177    0.0000 C   0  0  0  0  0  0  0  0  0  0  0  0
   -3.2772    4.0290    0.0000 C   0  0  0  0  0  0  0  0  0  0  0  0
   -1.8635    3.9069    0.0000 C   0  0  0  0  0  0  0  0  0  0  0  0
   -4.9736    0.8932    0.0000 C   0  0  0  0  0  0  0  0  0  0  0  0
   -4.3696   -0.3920    0.0000 N   0  0  0  0  0  0  0  0  0  0  0  0
   -2.5447    4.3825    0.0000 C   0  0  0  0  0  0  0  0  0  0  0  0
   -5.7191    0.5526    0.0000 N   0  0  0  0  0  0  0  0  0  0  0  0
   -3.7013   -0.8546    0.0000 C   0  0  0  0  0  0  0  0  0  0  0  0
   -6.4002    1.0281    0.0000 C   0  0  0  0  0  0  0  0  0  0  0  0
   -3.7784   -1.6643    0.0000 C   0  0  0  0  0  0  0  0  0  0  0  0
   -2.9688   -0.5012    0.0000 C   0  0  0  0  0  0  0  0  0  0  0  0
   -6.3360    1.8507    0.0000 C   0  0  0  0  0  0  0  0  0  0  0  0
   -7.1456    0.6876    0.0000 C   0  0  0  0  0  0  0  0  0  0  0  0
   -7.0171    2.3262    0.0000 C   0  0  0  0  0  0  0  0  0  0  0  0
   -7.8267    1.1631    0.0000 C   0  0  0  0  0  0  0  0  0  0  0  0
   -7.7625    1.9856    0.0000 C   0  0  0  0  0  0  0  0  0  0  0  0
   -8.4436    2.4611    0.0000 Cl  0  0  0  0  0  0  0  0  0  0  0  0
  1  2  1  0  0  0  0
  2  3  2  0  0  0  0
  2  4  1  0  0  0  0
  3  5  1  0  0  0  0
  4  6  2  0  0  0  0
  5  7  2  0  0  0  0
  7  8  1  0  0  0  0
  8  9  1  0  0  0  0
  8 10  1  0  0  0  0
  9 11  1  0  0  0  0
  9 12  2  0  0  0  0
 10 13  2  0  0  0  0
 10 14  1  0  0  0  0
 11 15  2  0  0  0  0
 11 16  1  0  0  0  0
 12 17  1  0  0  0  0
 13 18  1  0  0  0  0
 14 19  2  0  0  0  0
 16 20  2  0  0  0  0
 17 21  2  0  0  0  0
 18 22  2  0  0  0  0
 20 23  1  0  0  0  0
 21 24  1  0  0  0  0
 23 25  1  0  0  0  0
 24 26  1  0  0  0  0
 24 27  1  0  0  0  0
 25 28  2  0  0  0  0
 25 29  1  0  0  0  0
 28 30  1  0  0  0  0
 29 31  2  0  0  0  0
 30 32  2  0  0  0  0
 32 33  1  0  0  0  0
  6  7  1  0  0  0  0
 13 15  1  0  0  0  0
 17 20  1  0  0  0  0
 19 22  1  0  0  0  0
 31 32  1  0  0  0  0
M  END

>  <name>
Clofazimine

>  <ROTATABLE_BONDCOUNT>
4

>  <HBDScore>
0.8333333333333334

>  <dipole>
3.24

>  <logD>
7.24

>  <MPOScore>
3.0228333333333337

>  <logDScore>
0.0

>  <MW>
473.40

>  <charge_dist(7.4)>
0.14

>  <CNS>
FALSE

>  <ArRings>
5

>  <HBD>
1

>  <BALABAN_INDEX>
1.31

>  <bpKa>
6.63

>  <TPSAScore>
0.9995000000000002

>  <MWScore>
0.19000000000000017

>  <bpKaScore>
1.0

>  <logPScore>
0.0

>  <MPO_area>
33.18

>  <TPSA>
39.99

>  <logP>
7.30

$$$$

  Mrv1722703221715202D          

 16 16  0  0  0  0            999 V2000
    0.0000    0.0000    0.0000 Cl  0  0  0  0  0  0  0  0  0  0  0  0
    0.6602    0.4984    0.0000 C   0  0  0  0  0  0  0  0  0  0  0  0
    0.5632    1.3269    0.0000 C   0  0  0  0  0  0  0  0  0  0  0  0
    1.4110    0.1748    0.0000 C   0  0  0  0  0  0  0  0  0  0  0  0
    1.2234    1.8253    0.0000 C   0  0  0  0  0  0  0  0  0  0  0  0
    2.0713    0.6732    0.0000 C   0  0  0  0  0  0  0  0  0  0  0  0
    1.9742    1.5017    0.0000 C   0  0  0  0  0  0  0  0  0  0  0  0
    2.6344    2.0001    0.0000 O   0  0  0  0  0  0  0  0  0  0  0  0
    3.3852    1.6764    0.0000 C   0  0  0  0  0  0  0  0  0  0  0  0
    4.1361    1.3528    0.0000 C   0  0  0  0  0  0  0  0  0  0  0  0
    3.7089    2.4402    0.0000 C   0  0  0  0  0  0  0  0  0  0  0  0
    3.0487    0.9256    0.0000 C   0  0  0  0  0  0  0  0  0  0  0  0
    4.7963    1.8512    0.0000 O   0  0  0  0  0  0  0  0  0  0  0  0
    4.2203    0.5372    0.0000 O   0  0  0  0  0  0  0  0  0  0  0  0
    4.9711    0.2136    0.0000 C   0  0  0  0  0  0  0  0  0  0  0  0
    5.0552   -0.6020    0.0000 C   0  0  0  0  0  0  0  0  0  0  0  0
  1  2  1  0  0  0  0
  2  3  2  0  0  0  0
  2  4  1  0  0  0  0
  3  5  1  0  0  0  0
  4  6  2  0  0  0  0
  5  7  2  0  0  0  0
  7  8  1  0  0  0  0
  8  9  1  0  0  0  0
  9 10  1  0  0  0  0
  9 11  1  0  0  0  0
  9 12  1  0  0  0  0
 10 13  2  0  0  0  0
 10 14  1  0  0  0  0
 14 15  1  0  0  0  0
 15 16  1  0  0  0  0
  6  7  1  0  0  0  0
M  END

>  <name>
Clofibrate

>  <ROTATABLE_BONDCOUNT>
5

>  <HBDScore>
1.0

>  <dipole>
4.45

>  <logD>
3.40

>  <MPOScore>
4.8765

>  <logDScore>
0.30000000000000004

>  <MW>
242.70

>  <charge_dist(7.4)>
0.00

>  <CNS>
FALSE

>  <ArRings>
1

>  <HBD>
0

>  <BALABAN_INDEX>
2.39

>  <bpKa>
-4.92

>  <TPSAScore>
0.7765000000000001

>  <MWScore>
1.0

>  <bpKaScore>
1.0

>  <logPScore>
0.8

>  <MPO_area>
65.9

>  <TPSA>
35.53

>  <logP>
3.40

$$$$

  Mrv1722703221715202D          

 29 31  0  0  0  0            999 V2000
    0.0000    0.0000    0.0000 Cl  0  0  0  0  0  0  0  0  0  0  0  0
    0.7639    0.3108    0.0000 C   0  0  0  0  0  0  0  0  0  0  0  0
    0.8804    1.1393    0.0000 C   0  0  0  0  0  0  0  0  0  0  0  0
    1.4112   -0.2007    0.0000 C   0  0  0  0  0  0  0  0  0  0  0  0
    1.6443    1.4501    0.0000 C   0  0  0  0  0  0  0  0  0  0  0  0
    0.2201    1.6637    0.0000 C   0  0  0  0  0  0  0  0  0  0  0  0
    2.1751    0.1100    0.0000 C   0  0  0  0  0  0  0  0  0  0  0  0
    1.2817   -1.0163    0.0000 C   0  0  0  0  0  0  0  0  0  0  0  0
    1.7608    2.2787    0.0000 C   0  0  0  0  0  0  0  0  0  0  0  0
    0.3366    2.4923    0.0000 C   0  0  0  0  0  0  0  0  0  0  0  0
    2.8225   -0.4013    0.0000 C   0  0  0  0  0  0  0  0  0  0  0  0
    2.2917    0.9387    0.0000 C   0  0  0  0  0  0  0  0  0  0  0  0
    0.5050   -1.3141    0.0000 C   0  0  0  0  0  0  0  0  0  0  0  0
    1.9291   -1.5278    0.0000 C   0  0  0  0  0  0  0  0  0  0  0  0
    1.1005    2.8030    0.0000 C   0  0  0  0  0  0  0  0  0  0  0  0
    3.5863   -0.0906    0.0000 C   0  0  0  0  0  0  0  0  0  0  0  0
    3.0555    1.2494    0.0000 C   0  0  0  0  0  0  0  0  0  0  0  0
    0.3755   -2.1298    0.0000 C   0  0  0  0  0  0  0  0  0  0  0  0
    1.7996   -2.3434    0.0000 C   0  0  0  0  0  0  0  0  0  0  0  0
    3.7029    0.7380    0.0000 C   0  0  0  0  0  0  0  0  0  0  0  0
    1.0228   -2.6412    0.0000 C   0  0  0  0  0  0  0  0  0  0  0  0
    4.4668    1.0487    0.0000 O   0  0  0  0  0  0  0  0  0  0  0  0
    5.1141    0.5373    0.0000 C   0  0  0  0  0  0  0  0  0  0  0  0
    5.8780    0.8480    0.0000 C   0  0  0  0  0  0  0  0  0  0  0  0
    6.5253    0.3366    0.0000 N   0  0  0  0  0  0  0  0  0  0  0  0
    7.2892    0.6474    0.0000 C   0  0  0  0  0  0  0  0  0  0  0  0
    6.3959   -0.4791    0.0000 C   0  0  0  0  0  0  0  0  0  0  0  0
    7.9365    0.1359    0.0000 C   0  0  0  0  0  0  0  0  0  0  0  0
    7.0432   -0.9904    0.0000 C   0  0  0  0  0  0  0  0  0  0  0  0
  1  2  1  0  0  0  0
  2  3  1  0  0  0  0
  2  4  2  0  0  0  0
  3  5  2  0  0  0  0
  3  6  1  0  0  0  0
  4  7  1  0  0  0  0
  4  8  1  0  0  0  0
  5  9  1  0  0  0  0
  6 10  2  0  0  0  0
  7 11  2  0  0  0  0
  7 12  1  0  0  0  0
  8 13  2  0  0  0  0
  8 14  1  0  0  0  0
  9 15  2  0  0  0  0
 11 16  1  0  0  0  0
 12 17  2  0  0  0  0
 13 18  1  0  0  0  0
 14 19  2  0  0  0  0
 16 20  2  0  0  0  0
 18 21  2  0  0  0  0
 20 22  1  0  0  0  0
 22 23  1  0  0  0  0
 23 24  1  0  0  0  0
 24 25  1  0  0  0  0
 25 26  1  0  0  0  0
 25 27  1  0  0  0  0
 26 28  1  0  0  0  0
 27 29  1  0  0  0  0
 10 15  1  0  0  0  0
 17 20  1  0  0  0  0
 19 21  1  0  0  0  0
M  END

>  <name>
Clomiphene

>  <ROTATABLE_BONDCOUNT>
9

>  <HBDScore>
1.0

>  <dipole>
11.50

>  <logD>
4.57

>  <MPOScore>
2.0166428571428567

>  <logDScore>
0.0

>  <MW>
405.97

>  <charge_dist(7.4)>
0.99

>  <CNS>
FALSE

>  <ArRings>
3

>  <HBD>
0

>  <BALABAN_INDEX>
1.37

>  <bpKa>
9.31

>  <TPSAScore>
0.0

>  <MWScore>
0.671642857142857

>  <bpKaScore>
0.34499999999999975

>  <logPScore>
0.0

>  <MPO_area>
15.06

>  <TPSA>
12.47

>  <logP>
6.47

$$$$

  Mrv1722703221715202D          

 14 15  0  0  0  0            999 V2000
    0.0000    0.0000    0.0000 Cl  0  0  0  0  0  0  0  0  0  0  0  0
    0.7425   -0.3517    0.0000 C   0  0  0  0  0  0  0  0  0  0  0  0
    0.8011   -1.1724    0.0000 C   0  0  0  0  0  0  0  0  0  0  0  0
    1.4199    0.1238    0.0000 C   0  0  0  0  0  0  0  0  0  0  0  0
    0.1107   -1.6348    0.0000 N   0  0  0  0  0  0  0  0  0  0  0  0
    1.5436   -1.5241    0.0000 C   0  0  0  0  0  0  0  0  0  0  0  0
    2.1624   -0.2280    0.0000 C   0  0  0  0  0  0  0  0  0  0  0  0
   -0.6448   -1.2701    0.0000 C   0  0  0  0  0  0  0  0  0  0  0  0
    1.6023   -2.3447    0.0000 Cl  0  0  0  0  0  0  0  0  0  0  0  0
    2.2210   -1.0486    0.0000 C   0  0  0  0  0  0  0  0  0  0  0  0
   -1.3808   -1.6609    0.0000 N   0  0  0  0  0  0  0  0  0  0  0  0
   -0.8011   -0.4494    0.0000 N   0  0  0  0  0  0  0  0  0  0  0  0
   -1.9931   -1.0812    0.0000 C   0  0  0  0  0  0  0  0  0  0  0  0
   -1.6283   -0.3387    0.0000 C   0  0  0  0  0  0  0  0  0  0  0  0
  1  2  1  0  0  0  0
  2  3  2  0  0  0  0
  2  4  1  0  0  0  0
  3  5  1  0  0  0  0
  3  6  1  0  0  0  0
  4  7  2  0  0  0  0
  5  8  1  0  0  0  0
  6  9  1  0  0  0  0
  6 10  2  0  0  0  0
  8 11  2  0  0  0  0
  8 12  1  0  0  0  0
 11 13  1  0  0  0  0
 12 14  1  0  0  0  0
  7 10  1  0  0  0  0
 13 14  1  0  0  0  0
M  END

>  <name>
Clonidine

>  <ROTATABLE_BONDCOUNT>
1

>  <HBDScore>
0.5

>  <dipole>
1.81

>  <logD>
1.66

>  <MPOScore>
5.241

>  <logDScore>
1.0

>  <MW>
230.09

>  <charge_dist(7.4)>
0.85

>  <CNS>
FALSE

>  <ArRings>
1

>  <HBD>
2

>  <BALABAN_INDEX>
1.86

>  <bpKa>
8.16

>  <TPSAScore>
0.8210000000000002

>  <MWScore>
1.0

>  <bpKaScore>
0.9199999999999999

>  <logPScore>
1.0

>  <MPO_area>
76.43

>  <TPSA>
36.42

>  <logP>
2.49

$$$$

  Mrv1722703221715202D          

 29 32  0  0  0  0            999 V2000
    0.0000    0.0000    0.0000 Cl  0  0  0  0  0  0  0  0  0  0  0  0
   -0.6148   -0.5501    0.0000 C   0  0  0  0  0  0  0  0  0  0  0  0
   -1.4044   -0.2977    0.0000 C   0  0  0  0  0  0  0  0  0  0  0  0
   -0.4465   -1.3461    0.0000 C   0  0  0  0  0  0  0  0  0  0  0  0
   -1.5856    0.5113    0.0000 C   0  0  0  0  0  0  0  0  0  0  0  0
   -2.0192   -0.8478    0.0000 C   0  0  0  0  0  0  0  0  0  0  0  0
   -1.0614   -1.8962    0.0000 C   0  0  0  0  0  0  0  0  0  0  0  0
   -1.0484    1.1326    0.0000 N   0  0  0  0  0  0  0  0  0  0  0  0
   -2.3428    0.8478    0.0000 C   0  0  0  0  0  0  0  0  0  0  0  0
   -1.8509   -1.6438    0.0000 C   0  0  0  0  0  0  0  0  0  0  0  0
   -1.4691    1.8444    0.0000 O   0  0  0  0  0  0  0  0  0  0  0  0
   -2.2716    1.6697    0.0000 C   0  0  0  0  0  0  0  0  0  0  0  0
   -3.0547    0.4401    0.0000 C   0  0  0  0  0  0  0  0  0  0  0  0
   -2.8928    2.2198    0.0000 C   0  0  0  0  0  0  0  0  0  0  0  0
   -3.0547   -0.3754    0.0000 O   0  0  0  0  0  0  0  0  0  0  0  0
   -3.7795    0.8543    0.0000 N   0  0  0  0  0  0  0  0  0  0  0  0
   -4.4914    0.4465    0.0000 C   0  0  1  0  0  0  0  0  0  0  0  0
   -4.7050   -0.3430    0.0000 C   0  0  0  0  0  0  0  0  0  0  0  0
   -5.2939    0.6601    0.0000 C   0  0  1  0  0  0  0  0  0  0  0  0
   -4.2973   -1.0419    0.0000 O   0  0  0  0  0  0  0  0  0  0  0  0
   -5.5074   -0.1295    0.0000 N   0  0  0  0  0  0  0  0  0  0  0  0
   -5.9928    1.1067    0.0000 S   0  0  0  0  0  0  0  0  0  0  0  0
   -6.3358   -0.1747    0.0000 C   0  0  1  0  0  0  0  0  0  0  0  0
   -6.6335    0.5889    0.0000 C   0  0  0  0  0  0  0  0  0  0  0  0
   -6.7824   -0.8607    0.0000 C   0  0  0  0  0  0  0  0  0  0  0  0
   -7.3713    0.2136    0.0000 C   0  0  0  0  0  0  0  0  0  0  0  0
   -7.0930    1.2814    0.0000 C   0  0  0  0  0  0  0  0  0  0  0  0
   -6.4070   -1.5856    0.0000 O   0  0  0  0  0  0  0  0  0  0  0  0
   -7.6108   -0.8154    0.0000 O   0  0  0  0  0  0  0  0  0  0  0  0
  1  2  1  0  0  0  0
  2  3  2  0  0  0  0
  2  4  1  0  0  0  0
  3  5  1  0  0  0  0
  3  6  1  0  0  0  0
  4  7  2  0  0  0  0
  5  8  2  0  0  0  0
  5  9  1  0  0  0  0
  6 10  2  0  0  0  0
  8 11  1  0  0  0  0
  9 12  2  0  0  0  0
  9 13  1  0  0  0  0
 12 14  1  0  0  0  0
 13 15  2  0  0  0  0
 13 16  1  0  0  0  0
 17 16  1  1  0  0  0
 17 18  1  0  0  0  0
 17 19  1  0  0  0  0
 18 20  2  0  0  0  0
 18 21  1  0  0  0  0
 19 22  1  1  0  0  0
 21 23  1  0  0  0  0
 22 24  1  0  0  0  0
 23 25  1  6  0  0  0
 24 26  1  0  0  0  0
 24 27  1  0  0  0  0
 25 28  2  0  0  0  0
 25 29  1  0  0  0  0
  7 10  1  0  0  0  0
 11 12  1  0  0  0  0
 19 21  1  0  0  0  0
 23 24  1  0  0  0  0
M  END

>  <name>
Cloxacillin

>  <ROTATABLE_BONDCOUNT>
4

>  <HBDScore>
0.5

>  <dipole>
7.05

>  <logD>
-0.98

>  <MPOScore>
4.2

>  <logDScore>
1.0

>  <MW>
435.88

>  <charge_dist(7.4)>
-1.00

>  <CNS>
FALSE

>  <ArRings>
2

>  <HBD>
2

>  <BALABAN_INDEX>
1.35

>  <bpKa>
-0.41

>  <TPSAScore>
0.24200000000000021

>  <MWScore>
0.4580000000000001

>  <bpKaScore>
1.0

>  <logPScore>
1.0

>  <MPO_area>
51.36

>  <TPSA>
112.74

>  <logP>
2.30

$$$$

  Mrv1722703221715202D          

 54 58  0  0  0  0            999 V2000
    0.0000    0.0000    0.0000 S   0  0  0  0  0  0  0  0  0  0  0  0
   -0.7938    0.2602    0.0000 C   0  0  0  0  0  0  0  0  0  0  0  0
   -0.0065   -0.8198    0.0000 C   0  0  0  0  0  0  0  0  0  0  0  0
   -1.2882   -0.4034    0.0000 C   0  0  0  0  0  0  0  0  0  0  0  0
   -1.0540    1.0540    0.0000 C   0  0  0  0  0  0  0  0  0  0  0  0
   -0.8003   -1.0670    0.0000 N   0  0  0  0  0  0  0  0  0  0  0  0
   -1.8672    1.2361    0.0000 O   0  0  0  0  0  0  0  0  0  0  0  0
   -2.1275    2.0299    0.0000 C   0  0  0  0  0  0  0  0  0  0  0  0
   -1.5810    2.6480    0.0000 O   0  0  0  0  0  0  0  0  0  0  0  0
   -2.9408    2.2121    0.0000 N   0  0  0  0  0  0  0  0  0  0  0  0
   -3.2010    3.0058    0.0000 C   0  0  0  0  0  0  0  0  0  0  0  0
   -4.0142    3.1880    0.0000 C   0  0  0  0  0  0  0  0  0  0  0  0
   -2.6545    3.6239    0.0000 C   0  0  0  0  0  0  0  0  0  0  0  0
   -4.5738    2.5829    0.0000 C   0  0  0  0  0  0  0  0  0  0  0  0
   -1.8542    3.4548    0.0000 C   0  0  0  0  0  0  0  0  0  0  0  0
   -5.3870    2.7651    0.0000 C   0  0  0  0  0  0  0  0  0  0  0  0
   -4.3266    1.8022    0.0000 C   0  0  0  0  0  0  0  0  0  0  0  0
   -1.3077    4.0728    0.0000 C   0  0  0  0  0  0  0  0  0  0  0  0
   -5.9465    2.1600    0.0000 C   0  0  0  0  0  0  0  0  0  0  0  0
   -4.8861    1.1971    0.0000 C   0  0  0  0  0  0  0  0  0  0  0  0
   -0.5075    3.9036    0.0000 N   0  0  0  0  0  0  0  0  0  0  0  0
   -1.5680    4.8666    0.0000 C   0  0  0  0  0  0  0  0  0  0  0  0
   -5.6993    1.3793    0.0000 C   0  0  0  0  0  0  0  0  0  0  0  0
    0.0391    4.5217    0.0000 C   0  0  0  0  0  0  0  0  0  0  0  0
   -2.3812    5.0487    0.0000 C   0  0  0  0  0  0  0  0  0  0  0  0
   -0.2212    5.3155    0.0000 O   0  0  0  0  0  0  0  0  0  0  0  0
    0.8393    4.3526    0.0000 C   0  0  0  0  0  0  0  0  0  0  0  0
   -2.6414    5.8425    0.0000 C   0  0  0  0  0  0  0  0  0  0  0  0
   -2.9408    4.4437    0.0000 C   0  0  0  0  0  0  0  0  0  0  0  0
    1.0865    3.5719    0.0000 N   0  0  0  0  0  0  0  0  0  0  0  0
    1.3858    4.9707    0.0000 C   0  0  0  0  0  0  0  0  0  0  0  0
   -3.4548    6.0246    0.0000 C   0  0  0  0  0  0  0  0  0  0  0  0
   -3.7540    4.6258    0.0000 C   0  0  0  0  0  0  0  0  0  0  0  0
    0.5270    2.9668    0.0000 C   0  0  0  0  0  0  0  0  0  0  0  0
    2.1861    4.8015    0.0000 C   0  0  0  0  0  0  0  0  0  0  0  0
   -4.0142    5.4195    0.0000 C   0  0  0  0  0  0  0  0  0  0  0  0
   -0.2863    3.1489    0.0000 O   0  0  0  0  0  0  0  0  0  0  0  0
    0.7742    2.1861    0.0000 N   0  0  0  0  0  0  0  0  0  0  0  0
    2.7325    5.4195    0.0000 N   0  0  0  0  0  0  0  0  0  0  0  0
    1.5745    2.0169    0.0000 C   0  0  0  0  0  0  0  0  0  0  0  0
    0.2147    1.5810    0.0000 C   0  0  0  0  0  0  0  0  0  0  0  0
    3.5328    5.2504    0.0000 C   0  0  0  0  0  0  0  0  0  0  0  0
    2.4723    6.2133    0.0000 C   0  0  0  0  0  0  0  0  0  0  0  0
    1.8217    1.2361    0.0000 C   0  0  0  0  0  0  0  0  0  0  0  0
    4.0793    5.8685    0.0000 C   0  0  0  0  0  0  0  0  0  0  0  0
    3.0188    6.8314    0.0000 C   0  0  0  0  0  0  0  0  0  0  0  0
    2.6024    0.9889    0.0000 N   0  0  0  0  0  0  0  0  0  0  0  0
    1.3272    0.5725    0.0000 C   0  0  0  0  0  0  0  0  0  0  0  0
    3.8191    6.6622    0.0000 O   0  0  0  0  0  0  0  0  0  0  0  0
    2.5959    0.1692    0.0000 C   0  0  0  0  0  0  0  0  0  0  0  0
    1.8087   -0.0911    0.0000 S   0  0  0  0  0  0  0  0  0  0  0  0
    3.2595   -0.3123    0.0000 C   0  0  0  0  0  0  0  0  0  0  0  0
    3.1685   -1.1255    0.0000 C   0  0  0  0  0  0  0  0  0  0  0  0
    4.0077    0.0326    0.0000 C   0  0  0  0  0  0  0  0  0  0  0  0
  1  2  1  0  0  0  0
  1  3  1  0  0  0  0
  2  4  2  0  0  0  0
  2  5  1  0  0  0  0
  3  6  2  0  0  0  0
  5  7  1  0  0  0  0
  7  8  1  0  0  0  0
  8  9  2  0  0  0  0
  8 10  1  0  0  0  0
 10 11  1  0  0  0  0
 11 12  1  0  0  0  0
 11 13  1  0  0  0  0
 12 14  1  0  0  0  0
 13 15  1  0  0  0  0
 14 16  2  0  0  0  0
 14 17  1  0  0  0  0
 15 18  1  0  0  0  0
 16 19  1  0  0  0  0
 17 20  2  0  0  0  0
 18 21  1  0  0  0  0
 18 22  1  0  0  0  0
 19 23  2  0  0  0  0
 21 24  1  0  0  0  0
 22 25  1  0  0  0  0
 24 26  2  0  0  0  0
 24 27  1  0  0  0  0
 25 28  2  0  0  0  0
 25 29  1  0  0  0  0
 27 30  1  0  0  0  0
 27 31  1  0  0  0  0
 28 32  1  0  0  0  0
 29 33  2  0  0  0  0
 30 34  1  0  0  0  0
 31 35  1  0  0  0  0
 32 36  2  0  0  0  0
 34 37  2  0  0  0  0
 34 38  1  0  0  0  0
 35 39  1  0  0  0  0
 38 40  1  0  0  0  0
 38 41  1  0  0  0  0
 39 42  1  0  0  0  0
 39 43  1  0  0  0  0
 40 44  1  0  0  0  0
 42 45  1  0  0  0  0
 43 46  1  0  0  0  0
 44 47  1  0  0  0  0
 44 48  2  0  0  0  0
 45 49  1  0  0  0  0
 47 50  2  0  0  0  0
 48 51  1  0  0  0  0
 50 52  1  0  0  0  0
 52 53  1  0  0  0  0
 52 54  1  0  0  0  0
  4  6  1  0  0  0  0
 20 23  1  0  0  0  0
 33 36  1  0  0  0  0
 46 49  1  0  0  0  0
 50 51  1  0  0  0  0
M  END

>  <name>
Cobicistat

>  <ROTATABLE_BONDCOUNT>
20

>  <HBDScore>
0.16666666666666674

>  <dipole>
6.49

>  <logD>
4.91

>  <MPOScore>
1.1716666666666666

>  <logDScore>
0.0

>  <MW>
776.03

>  <charge_dist(7.4)>
0.16

>  <CNS>
FALSE

>  <ArRings>
4

>  <HBD>
3

>  <BALABAN_INDEX>
1.13

>  <bpKa>
6.69

>  <TPSAScore>
0.0

>  <MWScore>
0.0

>  <bpKaScore>
1.0

>  <logPScore>
0.004999999999999893

>  <MPO_area>
2.79

>  <TPSA>
138.02

>  <logP>
4.99

$$$$

  Mrv1722703221715202D          

 29 31  0  0  0  0            999 V2000
    0.0000    0.0000    0.0000 O   0  0  0  0  0  0  0  0  0  0  0  0
    0.8110   -0.1439    0.0000 C   0  0  0  0  0  0  0  0  0  0  0  0
    1.2951    0.5298    0.0000 C   0  0  0  0  0  0  0  0  0  0  0  0
    1.0204   -0.9419    0.0000 C   0  0  0  0  0  0  0  0  0  0  0  0
    0.8961    1.2689    0.0000 O   0  0  0  0  0  0  0  0  0  0  0  0
    2.1192    0.5690    0.0000 C   0  0  0  0  0  0  0  0  0  0  0  0
    1.7791   -1.2624    0.0000 C   0  0  0  0  0  0  0  0  0  0  0  0
    1.3278    1.9818    0.0000 C   0  0  0  0  0  0  0  0  0  0  0  0
    2.6555   -0.0523    0.0000 C   0  0  0  0  0  0  0  0  0  0  0  0
    2.5051   -0.8634    0.0000 C   0  0  0  0  0  0  0  0  0  0  0  0
    1.6221   -2.0734    0.0000 C   0  0  1  0  0  0  0  0  0  0  0  0
    3.2638   -1.1839    0.0000 C   0  0  0  0  0  0  0  0  0  0  0  0
    0.8110   -2.2827    0.0000 N   0  0  0  0  0  0  0  0  0  0  0  0
    2.1585   -2.6948    0.0000 C   0  0  0  0  0  0  0  0  0  0  0  0
    3.8460   -0.5887    0.0000 C   0  0  0  0  0  0  0  0  0  0  0  0
    3.4731   -1.9818    0.0000 C   0  0  0  0  0  0  0  0  0  0  0  0
    0.5887   -3.0807    0.0000 C   0  0  0  0  0  0  0  0  0  0  0  0
    2.9826   -2.6555    0.0000 C   0  0  0  0  0  0  0  0  0  0  0  0
    3.6236    0.2224    0.0000 O   0  0  0  0  0  0  0  0  0  0  0  0
    4.6439   -0.7980    0.0000 C   0  0  0  0  0  0  0  0  0  0  0  0
    4.2711   -2.1912    0.0000 C   0  0  0  0  0  0  0  0  0  0  0  0
    1.1708   -3.6628    0.0000 O   0  0  0  0  0  0  0  0  0  0  0  0
   -0.2224   -3.2900    0.0000 C   0  0  0  0  0  0  0  0  0  0  0  0
    4.2057    0.8176    0.0000 C   0  0  0  0  0  0  0  0  0  0  0  0
    5.2260   -0.2028    0.0000 O   0  0  0  0  0  0  0  0  0  0  0  0
    4.8532   -1.5960    0.0000 C   0  0  0  0  0  0  0  0  0  0  0  0
    6.0240   -0.4121    0.0000 C   0  0  0  0  0  0  0  0  0  0  0  0
    5.6512   -1.8052    0.0000 O   0  0  0  0  0  0  0  0  0  0  0  0
    5.8605   -2.6032    0.0000 C   0  0  0  0  0  0  0  0  0  0  0  0
  1  2  2  0  0  0  0
  2  3  1  0  0  0  0
  2  4  1  0  0  0  0
  3  5  1  0  0  0  0
  3  6  2  0  0  0  0
  4  7  2  0  0  0  0
  5  8  1  0  0  0  0
  6  9  1  0  0  0  0
  7 10  1  0  0  0  0
  7 11  1  0  0  0  0
 10 12  1  0  0  0  0
 11 13  1  6  0  0  0
 11 14  1  0  0  0  0
 12 15  2  0  0  0  0
 12 16  1  0  0  0  0
 13 17  1  0  0  0  0
 14 18  1  0  0  0  0
 15 19  1  0  0  0  0
 15 20  1  0  0  0  0
 16 21  2  0  0  0  0
 17 22  2  0  0  0  0
 17 23  1  0  0  0  0
 19 24  1  0  0  0  0
 20 25  1  0  0  0  0
 20 26  2  0  0  0  0
 25 27  1  0  0  0  0
 26 28  1  0  0  0  0
 28 29  1  0  0  0  0
  9 10  2  0  0  0  0
 16 18  1  0  0  0  0
 21 26  1  0  0  0  0
M  END

>  <name>
Colchicine

>  <ROTATABLE_BONDCOUNT>
5

>  <HBDScore>
0.8333333333333334

>  <dipole>
11.73

>  <logD>
1.46

>  <MPOScore>
5.551597619047619

>  <logDScore>
1.0

>  <MW>
399.443

>  <charge_dist(7.4)>
-0.00

>  <CNS>
FALSE

>  <ArRings>
2

>  <HBD>
1

>  <BALABAN_INDEX>
1.78

>  <bpKa>
-1.16

>  <TPSAScore>
1.0

>  <MWScore>
0.7182642857142858

>  <bpKaScore>
1.0

>  <logPScore>
1.0

>  <MPO_area>
85.84

>  <TPSA>
83.09

>  <logP>
1.46

$$$$

  Mrv1722703221715202D          

 30 33  0  0  0  0            999 V2000
    0.0000    0.0000    0.0000 Cl  0  0  0  0  0  0  0  0  0  0  0  0
    0.2401    0.7982    0.0000 C   0  0  0  0  0  0  0  0  0  0  0  0
   -0.3309    1.4147    0.0000 C   0  0  0  0  0  0  0  0  0  0  0  0
    1.0383    0.9864    0.0000 C   0  0  0  0  0  0  0  0  0  0  0  0
   -1.1422    1.2395    0.0000 F   0  0  0  0  0  0  0  0  0  0  0  0
   -0.0908    2.2129    0.0000 C   0  0  0  0  0  0  0  0  0  0  0  0
    1.2784    1.7846    0.0000 C   0  0  0  0  0  0  0  0  0  0  0  0
    1.5964    0.3829    0.0000 C   0  0  1  0  0  0  0  0  0  0  0  0
    0.7074    2.4011    0.0000 C   0  0  0  0  0  0  0  0  0  0  0  0
    2.0766    1.9728    0.0000 Cl  0  0  0  0  0  0  0  0  0  0  0  0
    2.3946    0.5711    0.0000 O   0  0  0  0  0  0  0  0  0  0  0  0
    1.3433   -0.4023    0.0000 C   0  0  0  0  0  0  0  0  0  0  0  0
    2.9527   -0.0324    0.0000 C   0  0  0  0  0  0  0  0  0  0  0  0
    2.6996   -0.8177    0.0000 C   0  0  0  0  0  0  0  0  0  0  0  0
    3.7510    0.1558    0.0000 C   0  0  0  0  0  0  0  0  0  0  0  0
    3.2577   -1.4212    0.0000 N   0  0  0  0  0  0  0  0  0  0  0  0
    1.8885   -0.9929    0.0000 N   0  0  0  0  0  0  0  0  0  0  0  0
    4.3091   -0.4478    0.0000 C   0  0  0  0  0  0  0  0  0  0  0  0
    4.0560   -1.2330    0.0000 C   0  0  0  0  0  0  0  0  0  0  0  0
    5.1073   -0.2596    0.0000 C   0  0  0  0  0  0  0  0  0  0  0  0
    5.7238   -0.7982    0.0000 C   0  0  0  0  0  0  0  0  0  0  0  0
    5.4253    0.5062    0.0000 C   0  0  0  0  0  0  0  0  0  0  0  0
    6.4312   -0.3699    0.0000 N   0  0  0  0  0  0  0  0  0  0  0  0
    6.2429    0.4348    0.0000 N   0  0  0  0  0  0  0  0  0  0  0  0
    6.7815    1.0643    0.0000 C   0  0  0  0  0  0  0  0  0  0  0  0
    7.5863    0.9085    0.0000 C   0  0  0  0  0  0  0  0  0  0  0  0
    6.5090    1.8560    0.0000 C   0  0  0  0  0  0  0  0  0  0  0  0
    8.1249    1.5380    0.0000 C   0  0  0  0  0  0  0  0  0  0  0  0
    7.0476    2.4855    0.0000 C   0  0  0  0  0  0  0  0  0  0  0  0
    7.8524    2.3298    0.0000 N   0  0  0  0  0  0  0  0  0  0  0  0
  1  2  1  0  0  0  0
  2  3  2  0  0  0  0
  2  4  1  0  0  0  0
  3  5  1  0  0  0  0
  3  6  1  0  0  0  0
  4  7  2  0  0  0  0
  4  8  1  0  0  0  0
  6  9  2  0  0  0  0
  7 10  1  0  0  0  0
  8 11  1  1  0  0  0
  8 12  1  0  0  0  0
 11 13  1  0  0  0  0
 13 14  2  0  0  0  0
 13 15  1  0  0  0  0
 14 16  1  0  0  0  0
 14 17  1  0  0  0  0
 15 18  2  0  0  0  0
 16 19  2  0  0  0  0
 18 20  1  0  0  0  0
 20 21  1  0  0  0  0
 20 22  2  0  0  0  0
 21 23  2  0  0  0  0
 22 24  1  0  0  0  0
 24 25  1  0  0  0  0
 25 26  1  0  0  0  0
 25 27  1  0  0  0  0
 26 28  1  0  0  0  0
 27 29  1  0  0  0  0
 28 30  1  0  0  0  0
  7  9  1  0  0  0  0
 18 19  1  0  0  0  0
 23 24  1  0  0  0  0
 29 30  1  0  0  0  0
M  END

>  <name>
Crizotinib

>  <ROTATABLE_BONDCOUNT>
5

>  <HBDScore>
0.5

>  <dipole>
5.27

>  <logD>
0.95

>  <MPOScore>
3.569714285714286

>  <logDScore>
1.0

>  <MW>
450.34

>  <charge_dist(7.4)>
1.02

>  <CNS>
FALSE

>  <ArRings>
3

>  <HBD>
2

>  <BALABAN_INDEX>
1.20

>  <bpKa>
10.12

>  <TPSAScore>
1.0

>  <MWScore>
0.35471428571428587

>  <bpKaScore>
0.0

>  <logPScore>
0.7150000000000001

>  <MPO_area>
37.5

>  <TPSA>
77.99

>  <logP>
3.57

$$$$

  Mrv1722703221715202D          

 34 37  0  0  0  0            999 V2000
    0.0000    0.0000    0.0000 O   0  0  0  0  0  0  0  0  0  0  0  0
   -0.7245   -0.4112    0.0000 C   0  0  0  0  0  0  0  0  0  0  0  0
   -0.7310   -1.2336    0.0000 C   0  0  0  0  0  0  0  0  0  0  0  0
   -1.4490    0.0065    0.0000 C   0  0  0  0  0  0  0  0  0  0  0  0
   -1.4555   -1.6448    0.0000 C   0  0  0  0  0  0  0  0  0  0  0  0
   -0.0196   -1.6448    0.0000 C   0  0  0  0  0  0  0  0  0  0  0  0
   -2.1735   -0.4047    0.0000 C   0  0  0  0  0  0  0  0  0  0  0  0
   -2.1800   -1.2205    0.0000 O   0  0  0  0  0  0  0  0  0  0  0  0
   -1.4620   -2.4672    0.0000 C   0  0  0  0  0  0  0  0  0  0  0  0
    0.6919   -1.2205    0.0000 O   0  0  0  0  0  0  0  0  0  0  0  0
   -0.0261   -2.4672    0.0000 C   0  0  0  0  0  0  0  0  0  0  0  0
   -2.8979    0.0131    0.0000 C   0  0  0  0  0  0  0  0  0  0  0  0
   -0.7506   -2.8783    0.0000 C   0  0  0  0  0  0  0  0  0  0  0  0
    1.4033   -1.6317    0.0000 C   0  0  0  0  0  0  0  0  0  0  0  0
   -3.6224   -0.3982    0.0000 O   0  0  0  0  0  0  0  0  0  0  0  0
   -2.9044    0.8485    0.0000 O   0  0  0  0  0  0  0  0  0  0  0  0
    2.1147   -1.2074    0.0000 C   0  0  0  0  0  0  0  0  0  0  0  0
    2.1082   -0.3721    0.0000 O   0  0  0  0  0  0  0  0  0  0  0  0
    2.8261   -1.6187    0.0000 C   0  0  0  0  0  0  0  0  0  0  0  0
    3.5376   -1.1944    0.0000 O   0  0  0  0  0  0  0  0  0  0  0  0
    4.2490   -1.6056    0.0000 C   0  0  0  0  0  0  0  0  0  0  0  0
    4.9604   -1.1813    0.0000 C   0  0  0  0  0  0  0  0  0  0  0  0
    4.2425   -2.4280    0.0000 C   0  0  0  0  0  0  0  0  0  0  0  0
    4.9539   -0.3459    0.0000 C   0  0  0  0  0  0  0  0  0  0  0  0
    5.6719   -1.5926    0.0000 C   0  0  0  0  0  0  0  0  0  0  0  0
    4.9539   -2.8392    0.0000 C   0  0  0  0  0  0  0  0  0  0  0  0
    4.2294    0.0718    0.0000 O   0  0  0  0  0  0  0  0  0  0  0  0
    5.6654    0.0718    0.0000 C   0  0  0  0  0  0  0  0  0  0  0  0
    6.3833   -1.1683    0.0000 O   0  0  0  0  0  0  0  0  0  0  0  0
    5.6654   -2.4150    0.0000 C   0  0  0  0  0  0  0  0  0  0  0  0
    6.3767   -0.3394    0.0000 C   0  0  0  0  0  0  0  0  0  0  0  0
    7.0882    0.0783    0.0000 C   0  0  0  0  0  0  0  0  0  0  0  0
    7.0817    0.9138    0.0000 O   0  0  0  0  0  0  0  0  0  0  0  0
    7.7996   -0.3329    0.0000 O   0  0  0  0  0  0  0  0  0  0  0  0
  1  2  2  0  0  0  0
  2  3  1  0  0  0  0
  2  4  1  0  0  0  0
  3  5  2  0  0  0  0
  3  6  1  0  0  0  0
  4  7  2  0  0  0  0
  5  8  1  0  0  0  0
  5  9  1  0  0  0  0
  6 10  1  0  0  0  0
  6 11  2  0  0  0  0
  7 12  1  0  0  0  0
  9 13  2  0  0  0  0
 10 14  1  0  0  0  0
 12 15  2  0  0  0  0
 12 16  1  0  0  0  0
 14 17  1  0  0  0  0
 17 18  1  0  0  0  0
 17 19  1  0  0  0  0
 19 20  1  0  0  0  0
 20 21  1  0  0  0  0
 21 22  2  0  0  0  0
 21 23  1  0  0  0  0
 22 24  1  0  0  0  0
 22 25  1  0  0  0  0
 23 26  2  0  0  0  0
 24 27  2  0  0  0  0
 24 28  1  0  0  0  0
 25 29  1  0  0  0  0
 25 30  2  0  0  0  0
 28 31  2  0  0  0  0
 31 32  1  0  0  0  0
 32 33  2  0  0  0  0
 32 34  1  0  0  0  0
  7  8  1  0  0  0  0
 11 13  1  0  0  0  0
 26 30  1  0  0  0  0
 29 31  1  0  0  0  0
M  END

>  <name>
Cromolyn

>  <ROTATABLE_BONDCOUNT>
8

>  <HBDScore>
0.16666666666666674

>  <dipole>
4.14

>  <logD>
-5.57

>  <MPOScore>
3.3925952380952378

>  <logDScore>
1.0

>  <MW>
468.370

>  <charge_dist(7.4)>
-2.00

>  <CNS>
FALSE

>  <ArRings>
4

>  <HBD>
3

>  <BALABAN_INDEX>
1.18

>  <bpKa>
-3.39

>  <TPSAScore>
0.0

>  <MWScore>
0.22592857142857137

>  <bpKaScore>
1.0

>  <logPScore>
1.0

>  <MPO_area>
37.73

>  <TPSA>
165.89

>  <logP>
1.48

$$$$

  Mrv1722703221715202D          

 23 25  0  0  0  0            999 V2000
    0.0000    0.0000    0.0000 S   0  0  0  0  0  0  0  0  0  0  0  0
   -0.7262   -0.3984    0.0000 C   0  0  0  0  0  0  0  0  0  0  0  0
    0.6041   -0.5527    0.0000 C   0  0  2  0  0  0  0  0  0  0  0  0
   -0.5656   -1.2018    0.0000 C   0  0  2  0  0  0  0  0  0  0  0  0
   -1.5231   -0.6426    0.0000 C   0  0  0  0  0  0  0  0  0  0  0  0
   -1.0604    0.3663    0.0000 C   0  0  0  0  0  0  0  0  0  0  0  0
    0.2506   -1.2982    0.0000 N   0  0  0  0  0  0  0  0  0  0  0  0
    1.3496   -0.8933    0.0000 C   0  0  2  0  0  0  0  0  0  0  0  0
   -1.1311   -1.8059    0.0000 C   0  0  0  0  0  0  0  0  0  0  0  0
    0.9961   -1.6388    0.0000 C   0  0  0  0  0  0  0  0  0  0  0  0
    2.1208   -0.5977    0.0000 N   0  0  0  0  0  0  0  0  0  0  0  0
   -0.8869   -2.5899    0.0000 O   0  0  0  0  0  0  0  0  0  0  0  0
   -1.9473   -1.6195    0.0000 O   0  0  0  0  0  0  0  0  0  0  0  0
    1.2789   -2.4100    0.0000 O   0  0  0  0  0  0  0  0  0  0  0  0
    2.7506   -1.1182    0.0000 C   0  0  0  0  0  0  0  0  0  0  0  0
    2.6092   -1.9280    0.0000 O   0  0  0  0  0  0  0  0  0  0  0  0
    3.5218   -0.8226    0.0000 C   0  0  0  0  0  0  0  0  0  0  0  0
    3.0976   -0.1028    0.0000 N   0  0  0  0  0  0  0  0  0  0  0  0
    3.6631   -1.6323    0.0000 C   0  0  0  0  0  0  0  0  0  0  0  0
    4.1452   -0.2764    0.0000 C   0  0  0  0  0  0  0  0  0  0  0  0
    4.4343   -1.9022    0.0000 C   0  0  0  0  0  0  0  0  0  0  0  0
    4.9163   -0.5463    0.0000 C   0  0  0  0  0  0  0  0  0  0  0  0
    5.0577   -1.3560    0.0000 C   0  0  0  0  0  0  0  0  0  0  0  0
  1  2  1  0  0  0  0
  3  1  1  1  0  0  0
  2  4  1  0  0  0  0
  2  5  1  0  0  0  0
  2  6  1  0  0  0  0
  3  7  1  0  0  0  0
  3  8  1  0  0  0  0
  4  9  1  6  0  0  0
  7 10  1  0  0  0  0
  8 11  1  1  0  0  0
  9 12  2  0  0  0  0
  9 13  1  0  0  0  0
 10 14  2  0  0  0  0
 11 15  1  0  0  0  0
 15 16  2  0  0  0  0
 15 17  1  0  0  0  0
 17 18  1  0  0  0  0
 17 19  1  0  0  0  0
 17 20  1  0  0  0  0
 19 21  1  0  0  0  0
 20 22  1  0  0  0  0
 21 23  1  0  0  0  0
  4  7  1  0  0  0  0
  8 10  1  0  0  0  0
 22 23  1  0  0  0  0
M  END

>  <name>
Cyclacillin

>  <ROTATABLE_BONDCOUNT>
3

>  <HBDScore>
0.16666666666666674

>  <dipole>
5.53

>  <logD>
-1.95

>  <MPOScore>
4.184

>  <logDScore>
1.0

>  <MW>
341.43

>  <charge_dist(7.4)>
-0.08

>  <CNS>
FALSE

>  <ArRings>
0

>  <HBD>
3

>  <BALABAN_INDEX>
1.60

>  <bpKa>
8.45

>  <TPSAScore>
0.24233333333333318

>  <MWScore>
1.0

>  <bpKaScore>
0.7750000000000004

>  <logPScore>
1.0

>  <MPO_area>
52.83

>  <TPSA>
112.73

>  <logP>
-1.91

$$$$

  Mrv1722703221715202D          

 14 14  0  0  0  0            999 V2000
    0.0000    0.0000    0.0000 Cl  0  0  0  0  0  0  0  0  0  0  0  0
   -0.5820    0.5949    0.0000 C   0  0  0  0  0  0  0  0  0  0  0  0
   -1.3838    0.4009    0.0000 C   0  0  0  0  0  0  0  0  0  0  0  0
   -1.9658    0.9958    0.0000 N   0  0  0  0  0  0  0  0  0  0  0  0
   -2.7676    0.8018    0.0000 P   0  0  2  0  0  0  0  0  0  0  0  0
   -1.7459    1.7912    0.0000 C   0  0  0  0  0  0  0  0  0  0  0  0
   -2.4378    0.0582    0.0000 O   0  0  0  0  0  0  0  0  0  0  0  0
   -3.4531    0.3492    0.0000 O   0  0  0  0  0  0  0  0  0  0  0  0
   -2.8323    1.6295    0.0000 N   0  0  0  0  0  0  0  0  0  0  0  0
   -0.9570    1.9981    0.0000 C   0  0  0  0  0  0  0  0  0  0  0  0
   -4.2032    0.7178    0.0000 C   0  0  0  0  0  0  0  0  0  0  0  0
   -3.5824    1.9981    0.0000 C   0  0  0  0  0  0  0  0  0  0  0  0
   -0.7371    2.7935    0.0000 Cl  0  0  0  0  0  0  0  0  0  0  0  0
   -4.2678    1.5455    0.0000 C   0  0  0  0  0  0  0  0  0  0  0  0
  1  2  1  0  0  0  0
  2  3  1  0  0  0  0
  3  4  1  0  0  0  0
  5  4  1  6  0  0  0
  4  6  1  0  0  0  0
  5  7  2  0  0  0  0
  5  8  1  0  0  0  0
  5  9  1  0  0  0  0
  6 10  1  0  0  0  0
  8 11  1  0  0  0  0
  9 12  1  0  0  0  0
 10 13  1  0  0  0  0
 11 14  1  0  0  0  0
 12 14  1  0  0  0  0
M  END

>  <name>
Cyclophosphamide

>  <ROTATABLE_BONDCOUNT>
5

>  <HBDScore>
0.8333333333333334

>  <dipole>
3.92

>  <logD>
0.10

>  <MPOScore>
5.833333333333333

>  <logDScore>
1.0

>  <MW>
261.08

>  <charge_dist(7.4)>
-0.00

>  <CNS>
FALSE

>  <ArRings>
0

>  <HBD>
1

>  <BALABAN_INDEX>
2.53

>  <bpKa>
0.08

>  <TPSAScore>
1.0

>  <MWScore>
1.0

>  <bpKaScore>
1.0

>  <logPScore>
1.0

>  <MPO_area>
94.44

>  <TPSA>
41.57

>  <logP>
0.10

$$$$

  Mrv1722703221715202D          

  4  3  0  0  0  0            999 V2000
    0.0000    0.0000    0.0000 S   0  0  0  0  0  0  0  0  0  0  0  0
    0.7620    0.3327    0.0000 C   0  0  0  0  0  0  0  0  0  0  0  0
    1.4213   -0.1633    0.0000 C   0  0  0  0  0  0  0  0  0  0  0  0
    2.1834    0.1693    0.0000 N   0  0  0  0  0  0  0  0  0  0  0  0
  1  2  1  0  0  0  0
  2  3  1  0  0  0  0
  3  4  1  0  0  0  0
M  END

>  <name>
Cysteamine

>  <ROTATABLE_BONDCOUNT>
1

>  <HBDScore>
0.5

>  <dipole>
0.70

>  <logD>
-2.20

>  <MPOScore>
3.801

>  <logDScore>
1.0

>  <MW>
77.15

>  <charge_dist(7.4)>
1.00

>  <CNS>
FALSE

>  <ArRings>
0

>  <HBD>
2

>  <BALABAN_INDEX>
1.97

>  <bpKa>
10.4

>  <TPSAScore>
0.301

>  <MWScore>
1.0

>  <bpKaScore>
0.0

>  <logPScore>
1.0

>  <MPO_area>
44.17

>  <TPSA>
26.02

>  <logP>
-0.42

$$$$

  Mrv1722703221715202D          

 35 38  0  0  0  0            999 V2000
    0.0000    0.0000    0.0000 S   0  0  0  0  0  0  0  0  0  0  0  0
   -0.3302   -0.7511    0.0000 O   0  0  0  0  0  0  0  0  0  0  0  0
    0.3173    0.7641    0.0000 O   0  0  0  0  0  0  0  0  0  0  0  0
   -0.7641    0.3302    0.0000 N   0  0  0  0  0  0  0  0  0  0  0  0
    0.7511   -0.3173    0.0000 C   0  0  0  0  0  0  0  0  0  0  0  0
   -1.4310   -0.1554    0.0000 C   0  0  0  0  0  0  0  0  0  0  0  0
    0.8418   -1.1331    0.0000 C   0  0  0  0  0  0  0  0  0  0  0  0
    1.4051    0.1813    0.0000 C   0  0  0  0  0  0  0  0  0  0  0  0
   -2.1950    0.1748    0.0000 C   0  0  0  0  0  0  0  0  0  0  0  0
   -1.3403   -0.9712    0.0000 C   0  0  0  0  0  0  0  0  0  0  0  0
    0.1748   -1.6187    0.0000 F   0  0  0  0  0  0  0  0  0  0  0  0
    1.5928   -1.4504    0.0000 C   0  0  0  0  0  0  0  0  0  0  0  0
    1.3015    1.0101    0.0000 F   0  0  0  0  0  0  0  0  0  0  0  0
    2.1562   -0.1360    0.0000 C   0  0  0  0  0  0  0  0  0  0  0  0
   -2.2986    1.0036    0.0000 F   0  0  0  0  0  0  0  0  0  0  0  0
   -2.8620   -0.3108    0.0000 C   0  0  0  0  0  0  0  0  0  0  0  0
   -2.0073   -1.4569    0.0000 C   0  0  0  0  0  0  0  0  0  0  0  0
    2.2468   -0.9518    0.0000 C   0  0  0  0  0  0  0  0  0  0  0  0
   -3.6260    0.0194    0.0000 C   0  0  0  0  0  0  0  0  0  0  0  0
   -2.7713   -1.1267    0.0000 C   0  0  0  0  0  0  0  0  0  0  0  0
   -3.8137    0.8288    0.0000 N   0  0  0  0  0  0  0  0  0  0  0  0
   -4.3447   -0.3950    0.0000 C   0  0  0  0  0  0  0  0  0  0  0  0
   -4.6426    0.9130    0.0000 C   0  0  0  0  0  0  0  0  0  0  0  0
   -4.9728    0.1554    0.0000 S   0  0  0  0  0  0  0  0  0  0  0  0
   -4.4289   -1.2108    0.0000 C   0  0  0  0  0  0  0  0  0  0  0  0
   -5.0699    1.6317    0.0000 C   0  0  0  0  0  0  0  0  0  0  0  0
   -5.1864   -1.5475    0.0000 N   0  0  0  0  0  0  0  0  0  0  0  0
   -3.7620   -1.6835    0.0000 C   0  0  0  0  0  0  0  0  0  0  0  0
   -5.7886    1.2173    0.0000 C   0  0  0  0  0  0  0  0  0  0  0  0
   -4.3642    2.0591    0.0000 C   0  0  0  0  0  0  0  0  0  0  0  0
   -5.4973    2.3504    0.0000 C   0  0  0  0  0  0  0  0  0  0  0  0
   -5.2706   -2.3634    0.0000 C   0  0  0  0  0  0  0  0  0  0  0  0
   -3.8461   -2.4994    0.0000 C   0  0  0  0  0  0  0  0  0  0  0  0
   -4.6037   -2.8360    0.0000 N   0  0  0  0  0  0  0  0  0  0  0  0
   -6.0282   -2.7001    0.0000 N   0  0  0  0  0  0  0  0  0  0  0  0
  1  2  2  0  0  0  0
  1  3  2  0  0  0  0
  1  4  1  0  0  0  0
  1  5  1  0  0  0  0
  4  6  1  0  0  0  0
  5  7  2  0  0  0  0
  5  8  1  0  0  0  0
  6  9  2  0  0  0  0
  6 10  1  0  0  0  0
  7 11  1  0  0  0  0
  7 12  1  0  0  0  0
  8 13  1  0  0  0  0
  8 14  2  0  0  0  0
  9 15  1  0  0  0  0
  9 16  1  0  0  0  0
 10 17  2  0  0  0  0
 12 18  2  0  0  0  0
 16 19  1  0  0  0  0
 16 20  2  0  0  0  0
 19 21  1  0  0  0  0
 19 22  2  0  0  0  0
 21 23  2  0  0  0  0
 22 24  1  0  0  0  0
 22 25  1  0  0  0  0
 23 26  1  0  0  0  0
 25 27  2  0  0  0  0
 25 28  1  0  0  0  0
 26 29  1  0  0  0  0
 26 30  1  0  0  0  0
 26 31  1  0  0  0  0
 27 32  1  0  0  0  0
 28 33  2  0  0  0  0
 32 34  2  0  0  0  0
 32 35  1  0  0  0  0
 14 18  1  0  0  0  0
 17 20  1  0  0  0  0
 23 24  1  0  0  0  0
 33 34  1  0  0  0  0
M  END

>  <name>
Dabrafenib

>  <ROTATABLE_BONDCOUNT>
5

>  <HBDScore>
0.5

>  <dipole>
10.39

>  <logD>
5.10

>  <MPOScore>
1.8046666666666666

>  <logDScore>
0.0

>  <MW>
519.56

>  <charge_dist(7.4)>
-0.64

>  <CNS>
FALSE

>  <ArRings>
4

>  <HBD>
2

>  <BALABAN_INDEX>
1.39

>  <bpKa>
2.91

>  <TPSAScore>
0.30466666666666664

>  <MWScore>
0.0

>  <bpKaScore>
1.0

>  <logPScore>
0.0

>  <MPO_area>
10.87

>  <TPSA>
110.86

>  <logP>
5.46

$$$$

  Mrv1722703221715202D          

 23 25  0  0  0  0            999 V2000
    0.0000    0.0000    0.0000 O   0  0  0  0  0  0  0  0  0  0  0  0
   -0.5658   -0.5980    0.0000 N   0  3  0  0  0  0  0  0  0  0  0  0
   -0.3279   -1.3759    0.0000 O   0  5  0  0  0  0  0  0  0  0  0  0
   -1.3695   -0.4115    0.0000 C   0  0  0  0  0  0  0  0  0  0  0  0
   -1.9353   -1.0094    0.0000 C   0  0  0  0  0  0  0  0  0  0  0  0
   -1.6203    0.3794    0.0000 C   0  0  0  0  0  0  0  0  0  0  0  0
   -2.7390   -0.8230    0.0000 C   0  0  0  0  0  0  0  0  0  0  0  0
   -2.4239    0.5658    0.0000 C   0  0  0  0  0  0  0  0  0  0  0  0
   -2.9897   -0.0322    0.0000 C   0  0  0  0  0  0  0  0  0  0  0  0
   -3.7934    0.1543    0.0000 C   0  0  0  0  0  0  0  0  0  0  0  0
   -4.4171   -0.3794    0.0000 O   0  0  0  0  0  0  0  0  0  0  0  0
   -4.1214    0.9130    0.0000 C   0  0  0  0  0  0  0  0  0  0  0  0
   -5.1308    0.0450    0.0000 C   0  0  0  0  0  0  0  0  0  0  0  0
   -4.9443    0.8423    0.0000 C   0  0  0  0  0  0  0  0  0  0  0  0
   -5.8895   -0.2700    0.0000 C   0  0  0  0  0  0  0  0  0  0  0  0
   -6.5517    0.2250    0.0000 N   0  0  0  0  0  0  0  0  0  0  0  0
   -7.3104   -0.0900    0.0000 N   0  0  0  0  0  0  0  0  0  0  0  0
   -7.4969   -0.8808    0.0000 C   0  0  0  0  0  0  0  0  0  0  0  0
   -8.0241    0.3343    0.0000 C   0  0  0  0  0  0  0  0  0  0  0  0
   -6.9632   -1.4917    0.0000 O   0  0  0  0  0  0  0  0  0  0  0  0
   -8.3198   -0.9516    0.0000 N   0  0  0  0  0  0  0  0  0  0  0  0
   -8.6478   -0.1993    0.0000 C   0  0  0  0  0  0  0  0  0  0  0  0
   -9.4514   -0.0128    0.0000 O   0  0  0  0  0  0  0  0  0  0  0  0
  1  2  2  0  0  0  0
  2  3  1  0  0  0  0
  2  4  1  0  0  0  0
  4  5  2  0  0  0  0
  4  6  1  0  0  0  0
  5  7  1  0  0  0  0
  6  8  2  0  0  0  0
  7  9  2  0  0  0  0
  9 10  1  0  0  0  0
 10 11  1  0  0  0  0
 10 12  2  0  0  0  0
 11 13  1  0  0  0  0
 12 14  1  0  0  0  0
 13 15  1  0  0  0  0
 15 16  2  3  0  0  0
 16 17  1  0  0  0  0
 17 18  1  0  0  0  0
 17 19  1  0  0  0  0
 18 20  2  0  0  0  0
 18 21  1  0  0  0  0
 19 22  1  0  0  0  0
 22 23  2  0  0  0  0
  8  9  1  0  0  0  0
 13 14  2  0  0  0  0
 21 22  1  0  0  0  0
M  CHG  2   2   1   3  -1
M  END

>  <name>
Dantrolene

>  <ROTATABLE_BONDCOUNT>
4

>  <HBDScore>
0.8333333333333334

>  <dipole>
13.17

>  <logD>
1.20

>  <MPOScore>
4.898333333333333

>  <logDScore>
1.0

>  <MW>
314.257

>  <charge_dist(7.4)>
-0.13

>  <CNS>
FALSE

>  <ArRings>
2

>  <HBD>
1

>  <BALABAN_INDEX>
1.32

>  <bpKa>
-1.27

>  <TPSAScore>
0.06500000000000006

>  <MWScore>
1.0

>  <bpKaScore>
1.0

>  <logPScore>
1.0

>  <MPO_area>
65.88

>  <TPSA>
118.05

>  <logP>
1.26

$$$$

  Mrv1722703221715202D          

 28 30  0  0  0  0            999 V2000
    0.0000    0.0000    0.0000 Cl  0  0  0  0  0  0  0  0  0  0  0  0
   -0.8166    0.1467    0.0000 C   0  0  0  0  0  0  0  0  0  0  0  0
   -1.1037    0.9251    0.0000 C   0  0  0  0  0  0  0  0  0  0  0  0
   -1.3525   -0.4785    0.0000 C   0  0  0  0  0  0  0  0  0  0  0  0
   -1.9203    1.0718    0.0000 C   0  0  0  0  0  0  0  0  0  0  0  0
   -0.5806    1.5630    0.0000 C   0  0  0  0  0  0  0  0  0  0  0  0
   -2.1691   -0.3318    0.0000 C   0  0  0  0  0  0  0  0  0  0  0  0
   -2.4562    0.4466    0.0000 C   0  0  0  0  0  0  0  0  0  0  0  0
    0.2233    1.4291    0.0000 C   0  0  0  0  0  0  0  0  0  0  0  0
   -3.2728    0.5933    0.0000 C   0  0  1  0  0  0  0  0  0  0  0  0
    0.4976    0.6635    0.0000 C   0  0  0  0  0  0  0  0  0  0  0  0
    0.7464    2.0670    0.0000 C   0  0  0  0  0  0  0  0  0  0  0  0
   -3.5599    1.3717    0.0000 O   0  0  0  0  0  0  0  0  0  0  0  0
   -3.8087   -0.0319    0.0000 C   0  0  1  0  0  0  0  0  0  0  0  0
    1.3015    0.5295    0.0000 C   0  0  0  0  0  0  0  0  0  0  0  0
    1.5503    1.9331    0.0000 C   0  0  0  0  0  0  0  0  0  0  0  0
   -4.3765    1.5184    0.0000 C   0  0  2  0  0  0  0  0  0  0  0  0
   -3.5344   -0.7975    0.0000 O   0  0  0  0  0  0  0  0  0  0  0  0
   -4.6254    0.1148    0.0000 C   0  0  1  0  0  0  0  0  0  0  0  0
    1.8246    1.1675    0.0000 C   0  0  0  0  0  0  0  0  0  0  0  0
   -4.9124    0.8932    0.0000 C   0  0  1  0  0  0  0  0  0  0  0  0
   -4.6637    2.2968    0.0000 C   0  0  0  0  0  0  0  0  0  0  0  0
   -5.1613   -0.5104    0.0000 O   0  0  0  0  0  0  0  0  0  0  0  0
    2.6285    1.0335    0.0000 O   0  0  0  0  0  0  0  0  0  0  0  0
   -5.7291    1.0399    0.0000 O   0  0  0  0  0  0  0  0  0  0  0  0
   -4.1405    2.9347    0.0000 O   0  0  0  0  0  0  0  0  0  0  0  0
    2.9028    0.2680    0.0000 C   0  0  0  0  0  0  0  0  0  0  0  0
    3.7067    0.1340    0.0000 C   0  0  0  0  0  0  0  0  0  0  0  0
  1  2  1  0  0  0  0
  2  3  2  0  0  0  0
  2  4  1  0  0  0  0
  3  5  1  0  0  0  0
  3  6  1  0  0  0  0
  4  7  2  0  0  0  0
  5  8  2  0  0  0  0
  6  9  1  0  0  0  0
 10  8  1  6  0  0  0
  9 11  2  0  0  0  0
  9 12  1  0  0  0  0
 10 13  1  0  0  0  0
 10 14  1  0  0  0  0
 11 15  1  0  0  0  0
 12 16  2  0  0  0  0
 13 17  1  0  0  0  0
 14 18  1  1  0  0  0
 14 19  1  0  0  0  0
 15 20  2  0  0  0  0
 17 21  1  0  0  0  0
 17 22  1  6  0  0  0
 19 23  1  6  0  0  0
 20 24  1  0  0  0  0
 21 25  1  1  0  0  0
 22 26  1  0  0  0  0
 24 27  1  0  0  0  0
 27 28  1  0  0  0  0
  7  8  1  0  0  0  0
 16 20  1  0  0  0  0
 19 21  1  0  0  0  0
M  END

>  <name>
Dapagliflozin

>  <ROTATABLE_BONDCOUNT>
6

>  <HBDScore>
0.0

>  <dipole>
6.72

>  <logD>
2.11

>  <MPOScore>
4.283190476190477

>  <logDScore>
0.9450000000000001

>  <MW>
408.88

>  <charge_dist(7.4)>
-0.00

>  <CNS>
FALSE

>  <ArRings>
2

>  <HBD>
4

>  <BALABAN_INDEX>
1.46

>  <bpKa>
-2.98

>  <TPSAScore>
0.6873333333333335

>  <MWScore>
0.6508571428571429

>  <bpKaScore>
1.0

>  <logPScore>
1.0

>  <MPO_area>
50.7

>  <TPSA>
99.38

>  <logP>
2.11

$$$$

  Mrv1722703221715202D          

 32 36  0  0  0  0            999 V2000
    0.0000    0.0000    0.0000 O   0  0  0  0  0  0  0  0  0  0  0  0
    0.6055   -0.5475    0.0000 C   0  0  0  0  0  0  0  0  0  0  0  0
    1.3849   -0.2899    0.0000 N   0  0  0  0  0  0  0  0  0  0  0  0
    0.4251   -1.3462    0.0000 C   0  0  0  0  0  0  0  0  0  0  0  0
    1.2238   -1.5137    0.0000 C   0  0  0  0  0  0  0  0  0  0  0  0
    0.2448   -2.1450    0.0000 C   0  0  0  0  0  0  0  0  0  0  0  0
   -0.3865   -1.1659    0.0000 C   0  0  2  0  0  0  0  0  0  0  0  0
    1.4686   -2.2931    0.0000 C   0  0  0  0  0  0  0  0  0  0  0  0
    1.7713   -0.8954    0.0000 C   0  0  0  0  0  0  0  0  0  0  0  0
   -0.5475   -2.3897    0.0000 C   0  0  0  0  0  0  0  0  0  0  0  0
    0.8502   -2.6924    0.0000 C   0  0  0  0  0  0  0  0  0  0  0  0
   -1.0048   -1.7069    0.0000 C   0  0  0  0  0  0  0  0  0  0  0  0
   -0.7279   -0.4058    0.0000 C   0  0  0  0  0  0  0  0  0  0  0  0
    2.2673   -2.4606    0.0000 C   0  0  0  0  0  0  0  0  0  0  0  0
    2.5700   -1.0628    0.0000 C   0  0  0  0  0  0  0  0  0  0  0  0
   -0.7279   -3.1884    0.0000 C   0  0  0  0  0  0  0  0  0  0  0  0
    0.6699   -3.4911    0.0000 C   0  0  0  0  0  0  0  0  0  0  0  0
   -1.7198   -1.2882    0.0000 N   0  0  0  0  0  0  0  0  0  0  0  0
   -1.5523   -0.4831    0.0000 C   0  0  0  0  0  0  0  0  0  0  0  0
    2.8148   -1.8422    0.0000 C   0  0  0  0  0  0  0  0  0  0  0  0
   -0.1224   -3.7359    0.0000 C   0  0  0  0  0  0  0  0  0  0  0  0
   -2.4799   -1.6167    0.0000 C   0  0  0  0  0  0  0  0  0  0  0  0
   -3.1497   -1.1272    0.0000 C   0  0  0  0  0  0  0  0  0  0  0  0
   -3.9098   -1.4557    0.0000 C   0  0  0  0  0  0  0  0  0  0  0  0
   -4.5797   -0.9662    0.0000 C   0  0  0  0  0  0  0  0  0  0  0  0
   -4.0065   -2.2673    0.0000 C   0  0  0  0  0  0  0  0  0  0  0  0
   -5.3398   -1.2947    0.0000 C   0  0  0  0  0  0  0  0  0  0  0  0
   -4.7665   -2.5958    0.0000 C   0  0  0  0  0  0  0  0  0  0  0  0
   -5.4364   -2.1063    0.0000 C   0  0  0  0  0  0  0  0  0  0  0  0
   -6.0934   -0.9533    0.0000 C   0  0  0  0  0  0  0  0  0  0  0  0
   -6.2480   -2.2673    0.0000 O   0  0  0  0  0  0  0  0  0  0  0  0
   -6.6538   -1.5588    0.0000 C   0  0  0  0  0  0  0  0  0  0  0  0
  1  2  2  0  0  0  0
  2  3  1  0  0  0  0
  2  4  1  0  0  0  0
  4  5  1  0  0  0  0
  4  6  1  0  0  0  0
  7  4  1  6  0  0  0
  5  8  2  0  0  0  0
  5  9  1  0  0  0  0
  6 10  2  0  0  0  0
  6 11  1  0  0  0  0
  7 12  1  0  0  0  0
  7 13  1  0  0  0  0
  8 14  1  0  0  0  0
  9 15  2  0  0  0  0
 10 16  1  0  0  0  0
 11 17  2  0  0  0  0
 12 18  1  0  0  0  0
 13 19  1  0  0  0  0
 14 20  2  0  0  0  0
 16 21  2  0  0  0  0
 18 22  1  0  0  0  0
 22 23  1  0  0  0  0
 23 24  1  0  0  0  0
 24 25  2  0  0  0  0
 24 26  1  0  0  0  0
 25 27  1  0  0  0  0
 26 28  2  0  0  0  0
 27 29  2  0  0  0  0
 27 30  1  0  0  0  0
 29 31  1  0  0  0  0
 30 32  1  0  0  0  0
 15 20  1  0  0  0  0
 17 21  1  0  0  0  0
 18 19  1  0  0  0  0
 28 29  1  0  0  0  0
 31 32  1  0  0  0  0
M  END

>  <name>
Darifenacin

>  <ROTATABLE_BONDCOUNT>
7

>  <HBDScore>
0.8333333333333334

>  <dipole>
5.66

>  <logD>
1.90

>  <MPOScore>
3.587904761904762

>  <logDScore>
1.0

>  <MW>
426.560

>  <charge_dist(7.4)>
1.00

>  <CNS>
FALSE

>  <ArRings>
3

>  <HBD>
1

>  <BALABAN_INDEX>
1.24

>  <bpKa>
10.11

>  <TPSAScore>
1.0

>  <MWScore>
0.5245714285714286

>  <bpKaScore>
0.0

>  <logPScore>
0.22999999999999998

>  <MPO_area>
39.85

>  <TPSA>
55.56

>  <logP>
4.54

$$$$

  Mrv1722703221715202D          

 28 31  0  0  0  0            999 V2000
    0.0000    0.0000    0.0000 O   0  0  0  0  0  0  0  0  0  0  0  0
   -0.8216    0.1165    0.0000 C   0  0  0  0  0  0  0  0  0  0  0  0
   -1.1386    0.8863    0.0000 C   0  0  0  0  0  0  0  0  0  0  0  0
   -1.3327   -0.5305    0.0000 C   0  0  0  0  0  0  0  0  0  0  0  0
   -0.6404    1.5462    0.0000 C   0  0  0  0  0  0  0  0  0  0  0  0
   -1.9602    1.0027    0.0000 C   0  0  0  0  0  0  0  0  0  0  0  0
   -2.1543   -0.4140    0.0000 C   0  0  0  0  0  0  0  0  0  0  0  0
   -0.8798    2.3419    0.0000 N   0  0  0  0  0  0  0  0  0  0  0  0
    0.1747    1.5267    0.0000 N   0  0  0  0  0  0  0  0  0  0  0  0
   -2.4712    0.3558    0.0000 C   0  0  0  0  0  0  0  0  0  0  0  0
   -0.2070    2.8141    0.0000 N   0  0  0  0  0  0  0  0  0  0  0  0
   -1.6626    2.6265    0.0000 C   0  0  0  0  0  0  0  0  0  0  0  0
    0.4464    2.3095    0.0000 C   0  0  0  0  0  0  0  0  0  0  0  0
   -1.8179    3.4416    0.0000 C   0  0  0  0  0  0  0  0  0  0  0  0
   -2.2966    2.1025    0.0000 C   0  0  0  0  0  0  0  0  0  0  0  0
    1.2291    2.5489    0.0000 C   0  0  0  0  0  0  0  0  0  0  0  0
   -2.6006    3.7263    0.0000 C   0  0  0  0  0  0  0  0  0  0  0  0
   -3.0793    2.3871    0.0000 C   0  0  0  0  0  0  0  0  0  0  0  0
    1.4168    3.3510    0.0000 C   0  0  0  0  0  0  0  0  0  0  0  0
    1.8179    1.9860    0.0000 C   0  0  0  0  0  0  0  0  0  0  0  0
   -3.2346    3.2022    0.0000 C   0  0  0  0  0  0  0  0  0  0  0  0
    0.8151    3.9268    0.0000 O   0  0  0  0  0  0  0  0  0  0  0  0
    2.1995    3.5904    0.0000 C   0  0  0  0  0  0  0  0  0  0  0  0
    2.6006    2.2254    0.0000 C   0  0  0  0  0  0  0  0  0  0  0  0
   -4.0174    3.4869    0.0000 C   0  0  0  0  0  0  0  0  0  0  0  0
    2.7883    3.0276    0.0000 C   0  0  0  0  0  0  0  0  0  0  0  0
   -4.6514    2.9629    0.0000 O   0  0  0  0  0  0  0  0  0  0  0  0
   -4.1726    4.3020    0.0000 O   0  0  0  0  0  0  0  0  0  0  0  0
  1  2  2  0  0  0  0
  2  3  1  0  0  0  0
  2  4  1  0  0  0  0
  3  5  2  0  0  0  0
  3  6  1  0  0  0  0
  4  7  2  0  0  0  0
  5  8  1  0  0  0  0
  5  9  1  0  0  0  0
  6 10  2  0  0  0  0
  8 11  1  0  0  0  0
  8 12  1  0  0  0  0
  9 13  1  0  0  0  0
 12 14  2  0  0  0  0
 12 15  1  0  0  0  0
 13 16  2  0  0  0  0
 14 17  1  0  0  0  0
 15 18  2  0  0  0  0
 16 19  1  0  0  0  0
 16 20  1  0  0  0  0
 17 21  2  0  0  0  0
 19 22  2  0  0  0  0
 19 23  1  0  0  0  0
 20 24  2  0  0  0  0
 21 25  1  0  0  0  0
 23 26  2  0  0  0  0
 25 27  2  0  0  0  0
 25 28  1  0  0  0  0
  7 10  1  0  0  0  0
 11 13  1  0  0  0  0
 18 21  1  0  0  0  0
 24 26  1  0  0  0  0
M  END

>  <name>
Deferasirox

>  <ROTATABLE_BONDCOUNT>
2

>  <HBDScore>
0.16666666666666674

>  <dipole>
4.92

>  <logD>
1.17

>  <MPOScore>
4.67984761904762

>  <logDScore>
1.0

>  <MW>
373.368

>  <charge_dist(7.4)>
-0.14

>  <CNS>
FALSE

>  <ArRings>
1

>  <HBD>
3

>  <BALABAN_INDEX>
1.43

>  <bpKa>
8.2

>  <TPSAScore>
0.7086666666666668

>  <MWScore>
0.9045142857142857

>  <bpKaScore>
0.9000000000000004

>  <logPScore>
1.0

>  <MPO_area>
60.69

>  <TPSA>
98.74

>  <logP>
1.22

$$$$

  Mrv1722703221715202D          

 32 35  0  0  0  0            999 V2000
    0.0000    0.0000    0.0000 S   0  0  0  0  0  0  0  0  0  0  0  0
    0.6996    0.4381    0.0000 O   0  0  0  0  0  0  0  0  0  0  0  0
   -0.7126   -0.4250    0.0000 O   0  0  0  0  0  0  0  0  0  0  0  0
    0.4250   -0.6996    0.0000 N   0  0  0  0  0  0  0  0  0  0  0  0
   -0.4381    0.7126    0.0000 C   0  0  0  0  0  0  0  0  0  0  0  0
    1.2488   -0.6735    0.0000 C   0  0  0  0  0  0  0  0  0  0  0  0
    1.6411    0.0654    0.0000 C   0  0  0  0  0  0  0  0  0  0  0  0
    1.6738   -1.3730    0.0000 C   0  0  0  0  0  0  0  0  0  0  0  0
    2.4649    0.0916    0.0000 C   0  0  0  0  0  0  0  0  0  0  0  0
    2.4976   -1.3469    0.0000 C   0  0  0  0  0  0  0  0  0  0  0  0
    2.8899   -0.6081    0.0000 C   0  0  0  0  0  0  0  0  0  0  0  0
    3.0011    0.7323    0.0000 C   0  0  0  0  0  0  0  0  0  0  0  0
    3.6941   -0.4054    0.0000 N   0  0  0  0  0  2  0  0  0  0  0  0
    3.7595    0.4184    0.0000 C   0  0  0  0  0  0  0  0  0  0  0  0
    4.4591    0.8565    0.0000 C   0  0  0  0  0  0  0  0  0  0  0  0
    4.4329    1.6934    0.0000 O   0  0  0  0  0  0  0  0  0  0  0  0
    5.1848    0.4642    0.0000 N   0  0  0  0  0  0  0  0  0  0  0  0
    5.1979   -0.3596    0.0000 C   0  0  0  0  0  0  0  0  0  0  0  0
    5.8844    0.9023    0.0000 C   0  0  0  0  0  0  0  0  0  0  0  0
    5.9236   -0.7519    0.0000 C   0  0  0  0  0  0  0  0  0  0  0  0
    6.6102    0.5100    0.0000 C   0  0  0  0  0  0  0  0  0  0  0  0
    6.6232   -0.3138    0.0000 N   0  0  0  0  0  0  0  0  0  0  0  0
    7.3490   -0.7061    0.0000 C   0  0  0  0  0  0  0  0  0  0  0  0
    7.3620   -1.5300    0.0000 N   0  0  0  0  0  0  0  0  0  0  0  0
    8.0486   -0.2681    0.0000 C   0  0  0  0  0  0  0  0  0  0  0  0
    8.0878   -1.9222    0.0000 C   0  0  0  0  0  0  0  0  0  0  0  0
    8.0224    0.5688    0.0000 N   0  0  0  0  0  0  0  0  0  0  0  0
    8.7743   -0.6604    0.0000 C   0  0  0  0  0  0  0  0  0  0  0  0
    8.7874   -1.4842    0.0000 C   0  0  0  0  0  0  0  0  0  0  0  0
    8.7220    1.0069    0.0000 C   0  0  0  0  0  0  0  0  0  0  0  0
    8.6958    1.8438    0.0000 C   0  0  0  0  0  0  0  0  0  0  0  0
    9.4477    0.6146    0.0000 C   0  0  0  0  0  0  0  0  0  0  0  0
  1  2  2  0  0  0  0
  1  3  2  0  0  0  0
  1  4  1  0  0  0  0
  1  5  1  0  0  0  0
  4  6  1  0  0  0  0
  6  7  2  0  0  0  0
  6  8  1  0  0  0  0
  7  9  1  0  0  0  0
  8 10  2  0  0  0  0
  9 11  2  0  0  0  0
  9 12  1  0  0  0  0
 11 13  1  0  0  0  0
 12 14  2  0  0  0  0
 14 15  1  0  0  0  0
 15 16  2  0  0  0  0
 15 17  1  0  0  0  0
 17 18  1  0  0  0  0
 17 19  1  0  0  0  0
 18 20  1  0  0  0  0
 19 21  1  0  0  0  0
 20 22  1  0  0  0  0
 22 23  1  0  0  0  0
 23 24  2  0  0  0  0
 23 25  1  0  0  0  0
 24 26  1  0  0  0  0
 25 27  1  0  0  0  0
 25 28  2  0  0  0  0
 26 29  2  0  0  0  0
 27 30  1  0  0  0  0
 30 31  1  0  0  0  0
 30 32  1  0  0  0  0
 10 11  1  0  0  0  0
 13 14  1  0  0  0  0
 21 22  1  0  0  0  0
 28 29  1  0  0  0  0
M  RAD  1  13   2
M  END

>  <name>
Delavirdine

>  <ROTATABLE_BONDCOUNT>
5

>  <HBDScore>
0.5

>  <logD>
1.12

>  <MPOScore>
4.233095238095238

>  <logDScore>
1.0

>  <MW>
455.56

>  <charge_dist(7.4)>
0.19

>  <CNS>
FALSE

>  <ArRings>
3

>  <HBD>
2

>  <BALABAN_INDEX>
1.25

>  <bpKa>
6.82

>  <TPSAScore>
0.41566666666666663

>  <MWScore>
0.3174285714285714

>  <bpKaScore>
1.0

>  <logPScore>
1.0

>  <MPO_area>
52.62

>  <TPSA>
107.53

>  <logP>
1.22

$$$$

  Mrv1722703221715202D          

 32 35  0  0  0  0            999 V2000
    0.0000    0.0000    0.0000 Cl  0  0  0  0  0  0  0  0  0  0  0  0
   -0.0194   -0.8151    0.0000 C   0  0  0  0  0  0  0  0  0  0  0  0
   -0.7440   -1.2097    0.0000 C   0  0  0  0  0  0  0  0  0  0  0  0
    0.6792   -1.2291    0.0000 C   0  0  0  0  0  0  0  0  0  0  0  0
   -0.7634   -2.0248    0.0000 C   0  0  0  0  0  0  0  0  0  0  0  0
   -1.4555   -0.7828    0.0000 C   0  0  2  0  0  0  0  0  0  0  0  0
    0.6598   -2.0442    0.0000 C   0  0  0  0  0  0  0  0  0  0  0  0
   -1.4879   -2.4194    0.0000 C   0  0  0  0  0  0  0  0  0  0  0  0
   -0.0647   -2.4388    0.0000 C   0  0  0  0  0  0  0  0  0  0  0  0
   -1.4491    0.0453    0.0000 O   0  0  0  0  0  0  0  0  0  0  0  0
   -2.1801   -1.1774    0.0000 C   0  0  1  0  0  0  0  0  0  0  0  0
   -1.5073   -3.2345    0.0000 O   0  0  0  0  0  0  0  0  0  0  0  0
   -2.1995   -1.9924    0.0000 C   0  0  0  0  0  0  0  0  0  0  0  0
   -0.0841   -3.2539    0.0000 O   0  0  0  0  0  0  0  0  0  0  0  0
   -2.8916   -0.7504    0.0000 C   0  0  0  0  0  0  0  0  0  0  0  0
   -2.9240   -2.3871    0.0000 C   0  0  0  0  0  0  0  0  0  0  0  0
   -3.6162   -1.1450    0.0000 C   0  0  1  0  0  0  0  0  0  0  0  0
   -2.9434   -3.2022    0.0000 O   0  0  0  0  0  0  0  0  0  0  0  0
   -3.6356   -1.9601    0.0000 C   0  0  1  0  0  0  0  0  0  0  0  0
   -4.3278   -0.7181    0.0000 C   0  0  1  0  0  0  0  0  0  0  0  0
   -3.6550   -2.7752    0.0000 O   0  0  0  0  0  0  0  0  0  0  0  0
   -4.3602   -2.3547    0.0000 C   0  0  0  0  0  0  0  0  0  0  0  0
   -4.3213    0.1100    0.0000 N   0  0  0  0  0  0  0  0  0  0  0  0
   -5.0523   -1.1127    0.0000 C   0  0  0  0  0  0  0  0  0  0  0  0
   -4.3796   -3.1698    0.0000 O   0  0  0  0  0  0  0  0  0  0  0  0
   -5.0717   -1.9278    0.0000 C   0  0  0  0  0  0  0  0  0  0  0  0
   -5.0329    0.5369    0.0000 C   0  0  0  0  0  0  0  0  0  0  0  0
   -3.6097    0.5175    0.0000 C   0  0  0  0  0  0  0  0  0  0  0  0
   -5.7639   -0.6857    0.0000 O   0  0  0  0  0  0  0  0  0  0  0  0
   -5.7963   -2.3224    0.0000 C   0  0  0  0  0  0  0  0  0  0  0  0
   -5.8157   -3.1375    0.0000 O   0  0  0  0  0  0  0  0  0  0  0  0
   -6.5078   -1.8954    0.0000 N   0  0  0  0  0  0  0  0  0  0  0  0
  1  2  1  0  0  0  0
  2  3  2  0  0  0  0
  2  4  1  0  0  0  0
  3  5  1  0  0  0  0
  3  6  1  0  0  0  0
  4  7  2  0  0  0  0
  5  8  1  0  0  0  0
  5  9  2  0  0  0  0
  6 10  1  1  0  0  0
  6 11  1  0  0  0  0
  8 12  2  0  0  0  0
  8 13  1  0  0  0  0
  9 14  1  0  0  0  0
 11 15  1  1  0  0  0
 13 16  2  0  0  0  0
 17 15  1  1  0  0  0
 16 18  1  0  0  0  0
 16 19  1  0  0  0  0
 17 20  1  0  0  0  0
 19 21  1  6  0  0  0
 19 22  1  0  0  0  0
 20 23  1  6  0  0  0
 20 24  1  0  0  0  0
 22 25  2  0  0  0  0
 22 26  1  0  0  0  0
 23 27  1  0  0  0  0
 23 28  1  0  0  0  0
 24 29  1  0  0  0  0
 26 30  1  0  0  0  0
 30 31  2  0  0  0  0
 30 32  1  0  0  0  0
  7  9  1  0  0  0  0
 11 13  1  0  0  0  0
 17 19  1  0  0  0  0
 24 26  2  0  0  0  0
M  END

>  <name>
Demeclocycline

>  <ROTATABLE_BONDCOUNT>
2

>  <HBDScore>
0.0

>  <dipole>
7.02

>  <logD>
-3.61

>  <MPOScore>
2.9810000000000003

>  <logDScore>
1.0

>  <MW>
464.86

>  <charge_dist(7.4)>
-0.88

>  <CNS>
FALSE

>  <ArRings>
1

>  <HBD>
6

>  <BALABAN_INDEX>
1.79

>  <bpKa>
8.54

>  <TPSAScore>
0.0

>  <MWScore>
0.2509999999999999

>  <bpKaScore>
0.7300000000000004

>  <logPScore>
1.0

>  <MPO_area>
31.89

>  <TPSA>
181.62

>  <logP>
-3.17

$$$$

  Mrv1722703221715202D          

 23 26  0  0  0  0            999 V2000
    0.0000    0.0000    0.0000 O   0  0  0  0  0  0  0  0  0  0  0  0
    0.8173    0.0915    0.0000 C   0  0  2  0  0  0  0  0  0  0  0  0
    0.6407    0.9088    0.0000 C   0  0  0  0  0  0  0  0  0  0  0  0
    1.6019    0.3531    0.0000 C   0  0  2  0  0  0  0  0  0  0  0  0
    0.8042   -0.7323    0.0000 C   0  0  0  0  0  0  0  0  0  0  0  0
    0.4642    1.7261    0.0000 C   0  0  0  0  0  0  0  0  0  0  0  0
    2.0792   -0.3138    0.0000 C   0  0  1  0  0  0  0  0  0  0  0  0
    1.9353    1.1181    0.0000 C   0  0  0  0  0  0  0  0  0  0  0  0
    1.0461    0.9808    0.0000 C   0  0  0  0  0  0  0  0  0  0  0  0
    1.5888   -0.9873    0.0000 C   0  0  0  0  0  0  0  0  0  0  0  0
    2.8965   -0.2223    0.0000 C   0  0  1  0  0  0  0  0  0  0  0  0
    2.7527    1.2096    0.0000 C   0  0  0  0  0  0  0  0  0  0  0  0
    1.3011    1.7785    0.0000 C   0  0  0  0  0  0  0  0  0  0  0  0
    3.2300    0.5427    0.0000 C   0  0  2  0  0  0  0  0  0  0  0  0
    3.3738   -0.8892    0.0000 C   0  0  0  0  0  0  0  0  0  0  0  0
    3.0861    1.9746    0.0000 C   0  0  0  0  0  0  0  0  0  0  0  0
    4.0472    0.6342    0.0000 C   0  0  2  0  0  0  0  0  0  0  0  0
    4.1911   -0.7977    0.0000 C   0  0  0  0  0  0  0  0  0  0  0  0
    4.5246   -0.0327    0.0000 C   0  0  0  0  0  0  0  0  0  0  0  0
    4.3807    1.3992    0.0000 C   0  0  0  0  0  0  0  0  0  0  0  0
    5.3418    0.0588    0.0000 C   0  0  0  0  0  0  0  0  0  0  0  0
    5.1980    1.4907    0.0000 C   0  0  0  0  0  0  0  0  0  0  0  0
    5.6753    0.8238    0.0000 C   0  0  0  0  0  0  0  0  0  0  0  0
  2  1  1  6  0  0  0
  2  3  1  0  0  0  0
  2  4  1  0  0  0  0
  2  5  1  0  0  0  0
  3  6  3  0  0  0  0
  4  7  1  0  0  0  0
  4  8  1  0  0  0  0
  4  9  1  6  0  0  0
  5 10  1  0  0  0  0
  7 11  1  0  0  0  0
  8 12  1  0  0  0  0
  9 13  1  0  0  0  0
 11 14  1  0  0  0  0
 11 15  1  1  0  0  0
 12 16  2  0  0  0  0
 14 17  1  0  0  0  0
 15 18  1  0  0  0  0
 17 19  1  0  0  0  0
 17 20  1  1  0  0  0
 19 21  2  0  0  0  0
 20 22  1  0  0  0  0
 21 23  1  0  0  0  0
  7 10  1  6  0  0  0
 14 12  1  6  0  0  0
 18 19  1  0  0  0  0
 22 23  1  0  0  0  0
M  END

>  <name>
Desogestrel

>  <ROTATABLE_BONDCOUNT>
1

>  <HBDScore>
0.8333333333333334

>  <dipole>
1.62

>  <logD>
4.42

>  <MPOScore>
3.1348333333333334

>  <logDScore>
0.0

>  <MW>
310.481

>  <charge_dist(7.4)>
0.00

>  <CNS>
FALSE

>  <ArRings>
0

>  <HBD>
1

>  <BALABAN_INDEX>
1.62

>  <bpKa>
-1.49

>  <TPSAScore>
0.011500000000000022

>  <MWScore>
1.0

>  <bpKaScore>
1.0

>  <logPScore>
0.29000000000000004

>  <MPO_area>
34.64

>  <TPSA>
20.23

>  <logP>
4.42

$$$$

  Mrv1722703221715202D          

 25 27  0  0  0  0            999 V2000
    0.0000    0.0000    0.0000 S   0  0  2  0  0  0  0  0  0  0  0  0
   -0.5154   -0.6442    0.0000 O   0  0  0  0  0  0  0  0  0  0  0  0
    0.8117   -0.1095    0.0000 C   0  0  0  0  0  0  0  0  0  0  0  0
   -0.3156    0.7730    0.0000 C   0  0  0  0  0  0  0  0  0  0  0  0
    1.1918   -0.8310    0.0000 N   0  0  0  0  0  0  0  0  0  0  0  0
    1.3786    0.4896    0.0000 N   0  0  0  0  0  0  0  0  0  0  0  0
   -1.1402    0.8955    0.0000 C   0  0  0  0  0  0  0  0  0  0  0  0
    1.9971   -0.6828    0.0000 C   0  0  0  0  0  0  0  0  0  0  0  0
    2.1130    0.1353    0.0000 C   0  0  0  0  0  0  0  0  0  0  0  0
   -1.4559    1.6685    0.0000 N   0  0  0  0  0  0  0  0  0  0  0  0
   -1.6556    0.2513    0.0000 C   0  0  0  0  0  0  0  0  0  0  0  0
    2.6413   -1.1853    0.0000 C   0  0  0  0  0  0  0  0  0  0  0  0
    2.8731    0.4509    0.0000 C   0  0  0  0  0  0  0  0  0  0  0  0
   -2.2805    1.7909    0.0000 C   0  0  0  0  0  0  0  0  0  0  0  0
   -2.4802    0.3736    0.0000 C   0  0  0  0  0  0  0  0  0  0  0  0
   -1.3528   -0.5089    0.0000 C   0  0  0  0  0  0  0  0  0  0  0  0
    3.4014   -0.8697    0.0000 C   0  0  0  0  0  0  0  0  0  0  0  0
    3.5174   -0.0516    0.0000 C   0  0  0  0  0  0  0  0  0  0  0  0
   -2.7958    1.1467    0.0000 C   0  0  0  0  0  0  0  0  0  0  0  0
   -2.9956   -0.2706    0.0000 O   0  0  0  0  0  0  0  0  0  0  0  0
   -3.8201   -0.1482    0.0000 C   0  0  0  0  0  0  0  0  0  0  0  0
   -4.3355   -0.7924    0.0000 C   0  0  0  0  0  0  0  0  0  0  0  0
   -4.8509   -1.4366    0.0000 F   0  0  0  0  0  0  0  0  0  0  0  0
   -4.9926   -0.2770    0.0000 F   0  0  0  0  0  0  0  0  0  0  0  0
   -3.6913   -1.2949    0.0000 F   0  0  0  0  0  0  0  0  0  0  0  0
  1  2  2  0  0  0  0
  1  3  1  0  0  0  0
  1  4  1  1  0  0  0
  3  5  2  0  0  0  0
  3  6  1  0  0  0  0
  4  7  1  0  0  0  0
  5  8  1  0  0  0  0
  6  9  1  0  0  0  0
  7 10  2  0  0  0  0
  7 11  1  0  0  0  0
  8 12  2  0  0  0  0
  9 13  2  0  0  0  0
 10 14  1  0  0  0  0
 11 15  2  0  0  0  0
 11 16  1  0  0  0  0
 12 17  1  0  0  0  0
 13 18  1  0  0  0  0
 14 19  2  0  0  0  0
 15 20  1  0  0  0  0
 20 21  1  0  0  0  0
 21 22  1  0  0  0  0
 22 23  1  0  0  0  0
 22 24  1  0  0  0  0
 22 25  1  0  0  0  0
  8  9  1  0  0  0  0
 15 19  1  0  0  0  0
 17 18  2  0  0  0  0
M  END

>  <name>
Dexlansoprazole

>  <ROTATABLE_BONDCOUNT>
6

>  <HBDScore>
0.8333333333333334

>  <dipole>
5.95

>  <logD>
3.03

>  <MPOScore>
5.23647619047619

>  <logDScore>
0.4850000000000001

>  <MW>
369.36

>  <charge_dist(7.4)>
-0.01

>  <CNS>
FALSE

>  <ArRings>
3

>  <HBD>
1

>  <BALABAN_INDEX>
1.33

>  <bpKa>
4.16

>  <TPSAScore>
1.0

>  <MWScore>
0.933142857142857

>  <bpKaScore>
1.0

>  <logPScore>
0.9850000000000001

>  <MPO_area>
76.18

>  <TPSA>
67.87

>  <logP>
3.03

$$$$

  Mrv1722703221715202D          

 14 15  0  0  0  0            999 V2000
    0.0000    0.0000    0.0000 Cl  0  0  0  0  0  0  0  0  0  0  0  0
    0.7619    0.3164    0.0000 C   0  0  0  0  0  0  0  0  0  0  0  0
    1.4076   -0.1872    0.0000 C   0  0  0  0  0  0  0  0  0  0  0  0
    0.8717    1.1429    0.0000 C   0  0  0  0  0  0  0  0  0  0  0  0
    2.1695    0.1291    0.0000 C   0  0  0  0  0  0  0  0  0  0  0  0
    1.6336    1.4592    0.0000 C   0  0  0  0  0  0  0  0  0  0  0  0
    2.8152   -0.3745    0.0000 S   0  0  0  0  0  0  0  0  0  0  0  0
    2.2793    0.9556    0.0000 C   0  0  0  0  0  0  0  0  0  0  0  0
    3.2478   -1.0719    0.0000 O   0  0  0  0  0  0  0  0  0  0  0  0
    2.1954   -0.9234    0.0000 O   0  0  0  0  0  0  0  0  0  0  0  0
    3.5771   -0.0581    0.0000 N   0  0  0  0  0  0  0  0  0  0  0  0
    3.0412    1.2720    0.0000 N   0  0  0  0  0  0  0  0  0  0  0  0
    3.6869    0.7684    0.0000 C   0  0  0  0  0  0  0  0  0  0  0  0
    4.4488    1.0847    0.0000 C   0  0  0  0  0  0  0  0  0  0  0  0
  1  2  1  0  0  0  0
  2  3  2  0  0  0  0
  2  4  1  0  0  0  0
  3  5  1  0  0  0  0
  4  6  2  0  0  0  0
  5  7  1  0  0  0  0
  5  8  2  0  0  0  0
  7  9  2  0  0  0  0
  7 10  2  0  0  0  0
  7 11  1  0  0  0  0
  8 12  1  0  0  0  0
 11 13  2  0  0  0  0
 13 14  1  0  0  0  0
  6  8  1  0  0  0  0
 12 13  1  0  0  0  0
M  END

>  <name>
Diazoxide

>  <ROTATABLE_BONDCOUNT>
0

>  <HBDScore>
0.8333333333333334

>  <dipole>
13.02

>  <logD>
1.00

>  <MPOScore>
5.833333333333333

>  <logDScore>
1.0

>  <MW>
230.67

>  <charge_dist(7.4)>
0.00

>  <CNS>
FALSE

>  <ArRings>
1

>  <HBD>
1

>  <BALABAN_INDEX>
2.13

>  <bpKa>
0.33

>  <TPSAScore>
1.0

>  <MWScore>
1.0

>  <bpKaScore>
1.0

>  <logPScore>
1.0

>  <MPO_area>
94.44

>  <TPSA>
58.53

>  <logP>
1.00

$$$$

  Mrv1722703221715202D          

 16 16  0  0  0  0            999 V2000
    0.0000    0.0000    0.0000 Cl  0  0  0  0  0  0  0  0  0  0  0  0
    0.7562    0.3296    0.0000 C   0  0  0  0  0  0  0  0  0  0  0  0
    1.4090   -0.1616    0.0000 C   0  0  0  0  0  0  0  0  0  0  0  0
    0.8532    1.1570    0.0000 C   0  0  0  0  0  0  0  0  0  0  0  0
    1.2992   -0.9760    0.0000 Cl  0  0  0  0  0  0  0  0  0  0  0  0
    2.1653    0.1681    0.0000 C   0  0  0  0  0  0  0  0  0  0  0  0
    0.1874    1.6611    0.0000 S   0  0  0  0  0  0  0  0  0  0  0  0
    1.6094    1.4866    0.0000 C   0  0  0  0  0  0  0  0  0  0  0  0
    2.2622    0.9954    0.0000 C   0  0  0  0  0  0  0  0  0  0  0  0
    0.6787    2.3269    0.0000 O   0  0  0  0  0  0  0  0  0  0  0  0
   -0.3167    1.0083    0.0000 O   0  0  0  0  0  0  0  0  0  0  0  0
   -0.4783    2.1653    0.0000 N   0  0  0  0  0  0  0  0  0  0  0  0
    3.0184    1.3250    0.0000 S   0  0  0  0  0  0  0  0  0  0  0  0
    3.3351    0.5688    0.0000 O   0  0  0  0  0  0  0  0  0  0  0  0
    2.6888    2.0942    0.0000 O   0  0  0  0  0  0  0  0  0  0  0  0
    3.7747    1.6547    0.0000 N   0  0  0  0  0  0  0  0  0  0  0  0
  1  2  1  0  0  0  0
  2  3  2  0  0  0  0
  2  4  1  0  0  0  0
  3  5  1  0  0  0  0
  3  6  1  0  0  0  0
  4  7  1  0  0  0  0
  4  8  2  0  0  0  0
  6  9  2  0  0  0  0
  7 10  2  0  0  0  0
  7 11  2  0  0  0  0
  7 12  1  0  0  0  0
  9 13  1  0  0  0  0
 13 14  2  0  0  0  0
 13 15  2  0  0  0  0
 13 16  1  0  0  0  0
  8  9  1  0  0  0  0
M  END

>  <name>
Dichlorphenamide

>  <ROTATABLE_BONDCOUNT>
2

>  <HBDScore>
0.5

>  <dipole>
5.45

>  <logD>
0.29

>  <MPOScore>
4.5

>  <logDScore>
1.0

>  <MW>
305.14

>  <charge_dist(7.4)>
-0.26

>  <CNS>
FALSE

>  <ArRings>
1

>  <HBD>
2

>  <BALABAN_INDEX>
2.86

>  <bpKa>
0.0

>  <TPSAScore>
0.0

>  <MWScore>
1.0

>  <bpKaScore>
1.0

>  <logPScore>
1.0

>  <MPO_area>
58.33

>  <TPSA>
120.32

>  <logP>
0.39

$$$$

  Mrv1722703221715202D          

 19 20  0  0  0  0            999 V2000
    0.0000    0.0000    0.0000 Cl  0  0  0  0  0  0  0  0  0  0  0  0
    0.2866    0.7706    0.0000 C   0  0  0  0  0  0  0  0  0  0  0  0
   -0.2356    1.4138    0.0000 C   0  0  0  0  0  0  0  0  0  0  0  0
    1.0890    0.9107    0.0000 C   0  0  0  0  0  0  0  0  0  0  0  0
   -1.0508    1.2864    0.0000 N   0  0  0  0  0  0  0  0  0  0  0  0
    0.0509    2.1843    0.0000 C   0  0  0  0  0  0  0  0  0  0  0  0
    1.3756    1.6813    0.0000 C   0  0  0  0  0  0  0  0  0  0  0  0
   -1.5730    1.9296    0.0000 C   0  0  0  0  0  0  0  0  0  0  0  0
   -0.4712    2.8276    0.0000 Cl  0  0  0  0  0  0  0  0  0  0  0  0
    0.8534    2.3244    0.0000 C   0  0  0  0  0  0  0  0  0  0  0  0
   -2.3881    1.8023    0.0000 C   0  0  0  0  0  0  0  0  0  0  0  0
   -1.2864    2.7002    0.0000 C   0  0  0  0  0  0  0  0  0  0  0  0
   -2.9104    2.4454    0.0000 C   0  0  0  0  0  0  0  0  0  0  0  0
   -2.6875    1.0444    0.0000 C   0  0  0  0  0  0  0  0  0  0  0  0
   -1.8086    3.3434    0.0000 C   0  0  0  0  0  0  0  0  0  0  0  0
   -2.6237    3.2160    0.0000 C   0  0  0  0  0  0  0  0  0  0  0  0
   -3.5026    0.9171    0.0000 C   0  0  0  0  0  0  0  0  0  0  0  0
   -4.0248    1.5602    0.0000 O   0  0  0  0  0  0  0  0  0  0  0  0
   -3.8019    0.1592    0.0000 O   0  0  0  0  0  0  0  0  0  0  0  0
  1  2  1  0  0  0  0
  2  3  2  0  0  0  0
  2  4  1  0  0  0  0
  3  5  1  0  0  0  0
  3  6  1  0  0  0  0
  4  7  2  0  0  0  0
  5  8  1  0  0  0  0
  6  9  1  0  0  0  0
  6 10  2  0  0  0  0
  8 11  2  0  0  0  0
  8 12  1  0  0  0  0
 11 13  1  0  0  0  0
 11 14  1  0  0  0  0
 12 15  2  0  0  0  0
 13 16  2  0  0  0  0
 14 17  1  0  0  0  0
 17 18  2  0  0  0  0
 17 19  1  0  0  0  0
  7 10  1  0  0  0  0
 15 16  1  0  0  0  0
M  END

>  <name>
Diclofenac

>  <ROTATABLE_BONDCOUNT>
4

>  <HBDScore>
0.5

>  <dipole>
1.95

>  <logD>
1.10

>  <MPOScore>
4.87

>  <logDScore>
1.0

>  <MW>
296.15

>  <charge_dist(7.4)>
-1.00

>  <CNS>
FALSE

>  <ArRings>
2

>  <HBD>
2

>  <BALABAN_INDEX>
1.74

>  <bpKa>
-2.08

>  <TPSAScore>
1.0

>  <MWScore>
1.0

>  <bpKaScore>
1.0

>  <logPScore>
0.3700000000000001

>  <MPO_area>
67.58

>  <TPSA>
49.33

>  <logP>
4.26

$$$$

  Mrv1722703221715202D          

 25 28  0  0  0  0            999 V2000
    0.0000    0.0000    0.0000 O   0  0  0  0  0  0  0  0  0  0  0  0
   -0.3297   -0.4266    0.0000 C   0  0  0  0  0  0  0  0  0  0  0  0
    0.0776   -1.1312    0.0000 O   0  0  0  0  0  0  0  0  0  0  0  0
   -1.1571   -0.4202    0.0000 C   0  0  0  0  0  0  0  0  0  0  0  0
   -0.3361   -1.8357    0.0000 C   0  0  0  0  0  0  0  0  0  0  0  0
   -1.5707   -1.1247    0.0000 C   0  0  0  0  0  0  0  0  0  0  0  0
   -1.5707    0.2973    0.0000 C   0  0  0  0  0  0  0  0  0  0  0  0
   -1.1635   -1.8293    0.0000 C   0  0  0  0  0  0  0  0  0  0  0  0
    0.0711   -2.5403    0.0000 C   0  0  0  0  0  0  0  0  0  0  0  0
   -2.3981   -1.1183    0.0000 O   0  0  0  0  0  0  0  0  0  0  0  0
   -1.1635    1.0148    0.0000 C   0  0  0  0  0  0  0  0  0  0  0  0
   -1.5772   -2.5339    0.0000 C   0  0  0  0  0  0  0  0  0  0  0  0
   -0.3426   -3.2449    0.0000 C   0  0  0  0  0  0  0  0  0  0  0  0
   -0.3491    1.0213    0.0000 C   0  0  0  0  0  0  0  0  0  0  0  0
   -1.5772    1.7324    0.0000 C   0  0  0  0  0  0  0  0  0  0  0  0
   -1.1700   -3.2384    0.0000 C   0  0  0  0  0  0  0  0  0  0  0  0
   -0.0323    0.5947    0.0000 O   0  0  0  0  0  0  0  0  0  0  0  0
    0.0582    1.7388    0.0000 O   0  0  0  0  0  0  0  0  0  0  0  0
   -2.4046    1.7388    0.0000 O   0  0  0  0  0  0  0  0  0  0  0  0
   -1.1700    2.4499    0.0000 C   0  0  0  0  0  0  0  0  0  0  0  0
   -0.3555    2.4563    0.0000 C   0  0  0  0  0  0  0  0  0  0  0  0
   -1.5837    3.1673    0.0000 C   0  0  0  0  0  0  0  0  0  0  0  0
    0.0517    3.1738    0.0000 C   0  0  0  0  0  0  0  0  0  0  0  0
   -1.1764    3.8848    0.0000 C   0  0  0  0  0  0  0  0  0  0  0  0
   -0.3620    3.8913    0.0000 C   0  0  0  0  0  0  0  0  0  0  0  0
  1  2  2  0  0  0  0
  2  3  1  0  0  0  0
  2  4  1  0  0  0  0
  3  5  1  0  0  0  0
  4  6  2  0  0  0  0
  4  7  1  0  0  0  0
  5  8  2  0  0  0  0
  5  9  1  0  0  0  0
  6 10  1  0  0  0  0
  7 11  1  0  0  0  0
  8 12  1  0  0  0  0
  9 13  2  0  0  0  0
 11 14  1  0  0  0  0
 11 15  2  0  0  0  0
 12 16  2  0  0  0  0
 14 17  2  0  0  0  0
 14 18  1  0  0  0  0
 15 19  1  0  0  0  0
 15 20  1  0  0  0  0
 18 21  1  0  0  0  0
 20 22  2  0  0  0  0
 21 23  2  0  0  0  0
 22 24  1  0  0  0  0
 23 25  1  0  0  0  0
  6  8  1  0  0  0  0
 13 16  1  0  0  0  0
 20 21  1  0  0  0  0
 24 25  2  0  0  0  0
M  END

>  <name>
Dicumarol

>  <ROTATABLE_BONDCOUNT>
2

>  <HBDScore>
0.5

>  <dipole>
13.04

>  <logD>
-2.22

>  <MPOScore>
5.398

>  <logDScore>
1.0

>  <MW>
336.299

>  <charge_dist(7.4)>
-1.99

>  <CNS>
FALSE

>  <ArRings>
4

>  <HBD>
2

>  <BALABAN_INDEX>
1.30

>  <bpKa>
-6.82

>  <TPSAScore>
0.8979999999999999

>  <MWScore>
1.0

>  <bpKaScore>
1.0

>  <logPScore>
1.0

>  <MPO_area>
80.78

>  <TPSA>
93.06

>  <logP>
1.94

$$$$

  Mrv1722703221715202D          

 17 19  0  0  0  0            999 V2000
    0.0000    0.0000    0.0000 O   0  0  0  0  0  0  0  0  0  0  0  0
    0.7340    0.3767    0.0000 C   0  0  0  0  0  0  0  0  0  0  0  0
    0.7794    1.2082    0.0000 N   0  0  0  0  0  0  0  0  0  0  0  0
    1.4160   -0.0779    0.0000 C   0  0  0  0  0  0  0  0  0  0  0  0
    1.5135    1.5849    0.0000 C   0  0  0  0  0  0  0  0  0  0  0  0
    1.5329   -0.8899    0.0000 N   0  0  0  0  0  0  0  0  0  0  0  0
    2.1500    0.2988    0.0000 C   0  0  0  0  0  0  0  0  0  0  0  0
    2.1955    1.1367    0.0000 N   0  0  0  0  0  0  0  0  0  0  0  0
    2.3384   -1.0198    0.0000 C   0  0  0  0  0  0  0  0  0  0  0  0
    2.7216   -0.2858    0.0000 N   0  0  0  0  0  0  0  0  0  0  0  0
    3.5335   -0.1559    0.0000 C   0  0  1  0  0  0  0  0  0  0  0  0
    3.9102    0.5846    0.0000 O   0  0  0  0  0  0  0  0  0  0  0  0
    4.1051   -0.7405    0.0000 C   0  0  0  0  0  0  0  0  0  0  0  0
    4.7157    0.4547    0.0000 C   0  0  2  0  0  0  0  0  0  0  0  0
    4.8391   -0.3638    0.0000 C   0  0  0  0  0  0  0  0  0  0  0  0
    5.3003    1.0392    0.0000 C   0  0  0  0  0  0  0  0  0  0  0  0
    6.0927    0.8249    0.0000 O   0  0  0  0  0  0  0  0  0  0  0  0
  1  2  2  0  0  0  0
  2  3  1  0  0  0  0
  2  4  1  0  0  0  0
  3  5  2  0  0  0  0
  4  6  1  0  0  0  0
  4  7  2  0  0  0  0
  5  8  1  0  0  0  0
  6  9  2  0  0  0  0
  7 10  1  0  0  0  0
 11 10  1  1  0  0  0
 11 12  1  0  0  0  0
 11 13  1  0  0  0  0
 12 14  1  0  0  0  0
 13 15  1  0  0  0  0
 14 16  1  1  0  0  0
 16 17  1  0  0  0  0
  7  8  1  0  0  0  0
  9 10  1  0  0  0  0
 14 15  1  0  0  0  0
M  END

>  <name>
Didanosine

>  <ROTATABLE_BONDCOUNT>
2

>  <HBDScore>
0.5

>  <dipole>
12.83

>  <logD>
-0.35

>  <MPOScore>
5.5

>  <logDScore>
1.0

>  <MW>
236.231

>  <charge_dist(7.4)>
1.00

>  <CNS>
FALSE

>  <ArRings>
2

>  <HBD>
2

>  <BALABAN_INDEX>
1.39

>  <bpKa>
2.76

>  <TPSAScore>
1.0

>  <MWScore>
1.0

>  <bpKaScore>
1.0

>  <logPScore>
1.0

>  <MPO_area>
83.33

>  <TPSA>
88.74

>  <logP>
-0.35

$$$$

  Mrv1722703221715202D          

 14 14  0  0  0  0            999 V2000
    0.0000    0.0000    0.0000 O   0  0  0  0  0  0  0  0  0  0  0  0
    0.1336    0.8142    0.0000 C   0  0  0  0  0  0  0  0  0  0  0  0
    0.8969    1.1068    0.0000 N   0  0  0  0  0  0  0  0  0  0  0  0
   -0.5025    1.3422    0.0000 N   0  0  0  0  0  0  0  0  0  0  0  0
    1.0304    1.9210    0.0000 C   0  0  0  0  0  0  0  0  0  0  0  0
    1.5202    0.5915    0.0000 C   0  0  0  0  0  0  0  0  0  0  0  0
   -1.2785    1.0623    0.0000 C   0  0  0  0  0  0  0  0  0  0  0  0
   -0.3689    2.1563    0.0000 C   0  0  0  0  0  0  0  0  0  0  0  0
    1.7938    2.2136    0.0000 C   0  0  0  0  0  0  0  0  0  0  0  0
    2.2836    0.8842    0.0000 C   0  0  0  0  0  0  0  0  0  0  0  0
   -1.9146    1.5902    0.0000 C   0  0  0  0  0  0  0  0  0  0  0  0
   -1.0050    2.6843    0.0000 C   0  0  0  0  0  0  0  0  0  0  0  0
    2.4172    1.6984    0.0000 N   0  0  0  0  0  0  0  0  0  0  0  0
    3.1804    1.9910    0.0000 C   0  0  0  0  0  0  0  0  0  0  0  0
  1  2  2  0  0  0  0
  2  3  1  0  0  0  0
  2  4  1  0  0  0  0
  3  5  1  0  0  0  0
  3  6  1  0  0  0  0
  4  7  1  0  0  0  0
  4  8  1  0  0  0  0
  5  9  1  0  0  0  0
  6 10  1  0  0  0  0
  7 11  1  0  0  0  0
  8 12  1  0  0  0  0
  9 13  1  0  0  0  0
 13 14  1  0  0  0  0
 10 13  1  0  0  0  0
M  END

>  <name>
Diethylcarbamazine

>  <ROTATABLE_BONDCOUNT>
2

>  <HBDScore>
1.0

>  <dipole>
4.52

>  <logD>
-0.03

>  <MPOScore>
5.3395

>  <logDScore>
1.0

>  <MW>
199.298

>  <charge_dist(7.4)>
0.24

>  <CNS>
FALSE

>  <ArRings>
0

>  <HBD>
0

>  <BALABAN_INDEX>
2.39

>  <bpKa>
6.9

>  <TPSAScore>
0.33949999999999997

>  <MWScore>
1.0

>  <bpKaScore>
1.0

>  <logPScore>
1.0

>  <MPO_area>
77.98

>  <TPSA>
26.79

>  <logP>
0.09

$$$$

  Mrv1722703221715202D          

 18 19  0  0  0  0            999 V2000
    0.0000    0.0000    0.0000 F   0  0  0  0  0  0  0  0  0  0  0  0
   -0.5396    0.6284    0.0000 C   0  0  0  0  0  0  0  0  0  0  0  0
   -0.2730    1.4091    0.0000 C   0  0  0  0  0  0  0  0  0  0  0  0
   -1.3520    0.4824    0.0000 C   0  0  0  0  0  0  0  0  0  0  0  0
    0.5268    1.5678    0.0000 C   0  0  0  0  0  0  0  0  0  0  0  0
   -0.8125    2.0376    0.0000 C   0  0  0  0  0  0  0  0  0  0  0  0
   -1.8916    1.1108    0.0000 C   0  0  0  0  0  0  0  0  0  0  0  0
    1.0537    0.9521    0.0000 C   0  0  0  0  0  0  0  0  0  0  0  0
    0.7934    2.3486    0.0000 C   0  0  0  0  0  0  0  0  0  0  0  0
   -1.6250    1.8916    0.0000 C   0  0  0  0  0  0  0  0  0  0  0  0
   -2.7041    0.9648    0.0000 F   0  0  0  0  0  0  0  0  0  0  0  0
    1.8535    1.1108    0.0000 C   0  0  0  0  0  0  0  0  0  0  0  0
    1.5932    2.5073    0.0000 C   0  0  0  0  0  0  0  0  0  0  0  0
    2.1201    1.8916    0.0000 C   0  0  0  0  0  0  0  0  0  0  0  0
    2.3803    0.4951    0.0000 C   0  0  0  0  0  0  0  0  0  0  0  0
    2.9199    2.0503    0.0000 O   0  0  0  0  0  0  0  0  0  0  0  0
    3.1802    0.6538    0.0000 O   0  0  0  0  0  0  0  0  0  0  0  0
    2.1011   -0.2730    0.0000 O   0  0  0  0  0  0  0  0  0  0  0  0
  1  2  1  0  0  0  0
  2  3  2  0  0  0  0
  2  4  1  0  0  0  0
  3  5  1  0  0  0  0
  3  6  1  0  0  0  0
  4  7  2  0  0  0  0
  5  8  2  0  0  0  0
  5  9  1  0  0  0  0
  6 10  2  0  0  0  0
  7 11  1  0  0  0  0
  8 12  1  0  0  0  0
  9 13  2  0  0  0  0
 12 14  2  0  0  0  0
 12 15  1  0  0  0  0
 14 16  1  0  0  0  0
 15 17  2  0  0  0  0
 15 18  1  0  0  0  0
  7 10  1  0  0  0  0
 13 14  1  0  0  0  0
M  END

>  <name>
Diflunisal

>  <ROTATABLE_BONDCOUNT>
2

>  <HBDScore>
0.5

>  <dipole>
3.68

>  <logD>
0.41

>  <MPOScore>
5.045

>  <logDScore>
1.0

>  <MW>
250.201

>  <charge_dist(7.4)>
-1.00

>  <CNS>
FALSE

>  <ArRings>
2

>  <HBD>
2

>  <BALABAN_INDEX>
1.86

>  <bpKa>
-6.31

>  <TPSAScore>
1.0

>  <MWScore>
1.0

>  <bpKaScore>
1.0

>  <logPScore>
0.5449999999999999

>  <MPO_area>
71.96

>  <TPSA>
57.53

>  <logP>
3.91

$$$$

  Mrv1722703221715202D          

 10  9  0  0  0  0            999 V2000
    0.0000    0.0000    0.0000 O   0  0  0  0  0  0  0  0  0  0  0  0
    0.0972    0.8299    0.0000 C   0  0  0  0  0  0  0  0  0  0  0  0
   -0.5706    1.3421    0.0000 O   0  0  0  0  0  0  0  0  0  0  0  0
    0.8559    1.1541    0.0000 C   0  0  0  0  0  0  0  0  0  0  0  0
   -1.3421    1.0309    0.0000 C   0  0  0  0  0  0  0  0  0  0  0  0
    1.5107    0.6549    0.0000 C   0  0  0  0  0  0  0  0  0  0  0  0
    2.2693    0.9791    0.0000 C   0  0  0  0  0  0  0  0  0  0  0  0
    2.3666    1.8090    0.0000 O   0  0  0  0  0  0  0  0  0  0  0  0
    2.9242    0.4798    0.0000 O   0  0  0  0  0  0  0  0  0  0  0  0
    3.6828    0.8040    0.0000 C   0  0  0  0  0  0  0  0  0  0  0  0
  1  2  2  0  0  0  0
  2  3  1  0  0  0  0
  2  4  1  0  0  0  0
  3  5  1  0  0  0  0
  4  6  2  0  0  0  0
  6  7  1  0  0  0  0
  7  8  2  0  0  0  0
  7  9  1  0  0  0  0
  9 10  1  0  0  0  0
M  END

>  <name>
Dimethyl_fumarate

>  <ROTATABLE_BONDCOUNT>
4

>  <HBDScore>
1.0

>  <dipole>
4.21

>  <logD>
0.72

>  <MPOScore>
6.0

>  <logDScore>
1.0

>  <MW>
144.126

>  <charge_dist(7.4)>
0.00

>  <CNS>
FALSE

>  <ArRings>
0

>  <HBD>
0

>  <BALABAN_INDEX>
3.17

>  <bpKa>
-6.53

>  <TPSAScore>
1.0

>  <MWScore>
1.0

>  <bpKaScore>
1.0

>  <logPScore>
1.0

>  <MPO_area>
100.0

>  <TPSA>
52.60

>  <logP>
0.72

$$$$

  Mrv1722703221715202D          

 21 23  0  0  0  0            999 V2000
    0.0000    0.0000    0.0000 N   0  3  0  0  0  0  0  0  0  0  0  0
   -0.4125   -0.7025    0.0000 C   0  0  0  0  0  0  0  0  0  0  0  0
   -0.4125    0.7154    0.0000 C   0  0  0  0  0  0  0  0  0  0  0  0
    0.6187    0.5350    0.0000 C   0  0  0  0  0  0  0  0  0  0  0  0
    0.6187   -0.5221    0.0000 C   0  0  0  0  0  0  0  0  0  0  0  0
   -1.2374   -0.6961    0.0000 C   0  0  0  0  0  0  0  0  0  0  0  0
   -1.2374    0.7219    0.0000 C   0  0  0  0  0  0  0  0  0  0  0  0
   -1.6499    0.0194    0.0000 C   0  0  0  0  0  0  0  0  0  0  0  0
   -2.4749    0.0258    0.0000 C   0  0  0  0  0  0  0  0  0  0  0  0
   -2.8874   -0.6767    0.0000 C   0  0  0  0  0  0  0  0  0  0  0  0
   -2.8874    0.7412    0.0000 C   0  0  0  0  0  0  0  0  0  0  0  0
   -3.7124   -0.6703    0.0000 C   0  0  0  0  0  0  0  0  0  0  0  0
   -2.4878   -1.3792    0.0000 C   0  0  0  0  0  0  0  0  0  0  0  0
   -3.7124    0.7476    0.0000 C   0  0  0  0  0  0  0  0  0  0  0  0
   -2.4878    1.4566    0.0000 C   0  0  0  0  0  0  0  0  0  0  0  0
   -4.1249   -1.3728    0.0000 C   0  0  0  0  0  0  0  0  0  0  0  0
   -2.9003   -2.0818    0.0000 C   0  0  0  0  0  0  0  0  0  0  0  0
   -4.1249    1.4630    0.0000 C   0  0  0  0  0  0  0  0  0  0  0  0
   -2.9003    2.1720    0.0000 C   0  0  0  0  0  0  0  0  0  0  0  0
   -3.7253   -2.0753    0.0000 C   0  0  0  0  0  0  0  0  0  0  0  0
   -3.7253    2.1784    0.0000 C   0  0  0  0  0  0  0  0  0  0  0  0
  1  2  1  0  0  0  0
  1  3  1  0  0  0  0
  1  4  1  0  0  0  0
  1  5  1  0  0  0  0
  2  6  1  0  0  0  0
  3  7  1  0  0  0  0
  6  8  1  0  0  0  0
  8  9  2  0  0  0  0
  9 10  1  0  0  0  0
  9 11  1  0  0  0  0
 10 12  2  0  0  0  0
 10 13  1  0  0  0  0
 11 14  2  0  0  0  0
 11 15  1  0  0  0  0
 12 16  1  0  0  0  0
 13 17  2  0  0  0  0
 14 18  1  0  0  0  0
 15 19  2  0  0  0  0
 16 20  2  0  0  0  0
 18 21  2  0  0  0  0
  7  8  1  0  0  0  0
 17 20  1  0  0  0  0
 19 21  1  0  0  0  0
M  CHG  1   1   1
M  END

>  <name>
Diphemanil

>  <ROTATABLE_BONDCOUNT>
2

>  <HBDScore>
1.0

>  <dipole>
17.74

>  <logD>
-0.15

>  <MPOScore>
5.0

>  <logDScore>
1.0

>  <MW>
278.418

>  <charge_dist(7.4)>
0.00

>  <CNS>
FALSE

>  <ArRings>
2

>  <HBD>
0

>  <BALABAN_INDEX>
1.46

>  <bpKa>
0.0

>  <TPSAScore>
0.0

>  <MWScore>
1.0

>  <bpKaScore>
1.0

>  <logPScore>
1.0

>  <MPO_area>
66.67

>  <TPSA>
0.00

>  <logP>
-0.15

$$$$

  Mrv1722703221715202D          

 36 39  0  0  0  0            999 V2000
    0.0000    0.0000    0.0000 O   0  0  0  0  0  0  0  0  0  0  0  0
   -0.4131    0.7164    0.0000 C   0  0  0  0  0  0  0  0  0  0  0  0
   -1.2392    0.7293    0.0000 C   0  0  0  0  0  0  0  0  0  0  0  0
   -1.6523    1.4457    0.0000 N   0  0  0  0  0  0  0  0  0  0  0  0
   -2.4784    1.4586    0.0000 C   0  0  0  0  0  0  0  0  0  0  0  0
   -1.2457    2.1622    0.0000 C   0  0  0  0  0  0  0  0  0  0  0  0
   -2.8915    2.1750    0.0000 N   0  0  0  0  0  0  0  0  0  0  0  0
   -2.8979    0.7551    0.0000 N   0  0  0  0  0  0  0  0  0  0  0  0
   -0.4324    2.1622    0.0000 C   0  0  0  0  0  0  0  0  0  0  0  0
   -3.7176    2.1880    0.0000 C   0  0  0  0  0  0  0  0  0  0  0  0
   -3.7241    0.7681    0.0000 C   0  0  0  0  0  0  0  0  0  0  0  0
   -0.0258    2.8786    0.0000 O   0  0  0  0  0  0  0  0  0  0  0  0
   -4.1307    2.9044    0.0000 N   0  0  0  0  0  0  0  0  0  0  0  0
   -4.1371    1.4844    0.0000 C   0  0  0  0  0  0  0  0  0  0  0  0
   -4.1436    0.0645    0.0000 C   0  0  0  0  0  0  0  0  0  0  0  0
   -3.7241    3.6208    0.0000 C   0  0  0  0  0  0  0  0  0  0  0  0
   -4.9568    2.9173    0.0000 C   0  0  0  0  0  0  0  0  0  0  0  0
   -4.9633    1.4974    0.0000 N   0  0  0  0  0  0  0  0  0  0  0  0
   -4.9697    0.0775    0.0000 N   0  0  0  0  0  0  0  0  0  0  0  0
   -3.7434   -0.6390    0.0000 N   0  0  0  0  0  0  0  0  0  0  0  0
   -4.1371    4.3372    0.0000 C   0  0  0  0  0  0  0  0  0  0  0  0
   -5.3699    3.6337    0.0000 C   0  0  0  0  0  0  0  0  0  0  0  0
   -5.3828    0.7938    0.0000 C   0  0  0  0  0  0  0  0  0  0  0  0
   -4.1630   -1.3425    0.0000 C   0  0  0  0  0  0  0  0  0  0  0  0
   -2.9302   -0.6390    0.0000 C   0  0  0  0  0  0  0  0  0  0  0  0
   -4.9633    4.3501    0.0000 C   0  0  0  0  0  0  0  0  0  0  0  0
   -6.2090    0.8068    0.0000 N   0  0  0  0  0  0  0  0  0  0  0  0
   -3.7628   -2.0460    0.0000 C   0  0  0  0  0  0  0  0  0  0  0  0
   -2.5301   -1.3425    0.0000 C   0  0  0  0  0  0  0  0  0  0  0  0
   -6.6220    1.5232    0.0000 C   0  0  0  0  0  0  0  0  0  0  0  0
   -6.6284    0.1033    0.0000 C   0  0  0  0  0  0  0  0  0  0  0  0
   -2.9496   -2.0460    0.0000 C   0  0  0  0  0  0  0  0  0  0  0  0
   -7.4482    1.5361    0.0000 C   0  0  0  0  0  0  0  0  0  0  0  0
   -7.4546    0.1162    0.0000 C   0  0  0  0  0  0  0  0  0  0  0  0
   -7.8612    2.2525    0.0000 O   0  0  0  0  0  0  0  0  0  0  0  0
   -7.8741   -0.5873    0.0000 O   0  0  0  0  0  0  0  0  0  0  0  0
  1  2  1  0  0  0  0
  2  3  1  0  0  0  0
  3  4  1  0  0  0  0
  4  5  1  0  0  0  0
  4  6  1  0  0  0  0
  5  7  2  0  0  0  0
  5  8  1  0  0  0  0
  6  9  1  0  0  0  0
  7 10  1  0  0  0  0
  8 11  2  0  0  0  0
  9 12  1  0  0  0  0
 10 13  1  0  0  0  0
 10 14  2  0  0  0  0
 11 15  1  0  0  0  0
 13 16  1  0  0  0  0
 13 17  1  0  0  0  0
 14 18  1  0  0  0  0
 15 19  2  0  0  0  0
 15 20  1  0  0  0  0
 16 21  1  0  0  0  0
 17 22  1  0  0  0  0
 18 23  2  0  0  0  0
 20 24  1  0  0  0  0
 20 25  1  0  0  0  0
 21 26  1  0  0  0  0
 23 27  1  0  0  0  0
 24 28  1  0  0  0  0
 25 29  1  0  0  0  0
 27 30  1  0  0  0  0
 27 31  1  0  0  0  0
 28 32  1  0  0  0  0
 30 33  1  0  0  0  0
 31 34  1  0  0  0  0
 33 35  1  0  0  0  0
 34 36  1  0  0  0  0
 11 14  1  0  0  0  0
 19 23  1  0  0  0  0
 22 26  1  0  0  0  0
 29 32  1  0  0  0  0
M  END

>  <name>
Dipyridamole

>  <ROTATABLE_BONDCOUNT>
12

>  <HBDScore>
0.0

>  <dipole>
2.93

>  <logD>
1.81

>  <MPOScore>
3.0

>  <logDScore>
1.0

>  <MW>
504.636

>  <charge_dist(7.4)>
0.00

>  <CNS>
FALSE

>  <ArRings>
2

>  <HBD>
4

>  <BALABAN_INDEX>
1.47

>  <bpKa>
3.54

>  <TPSAScore>
0.0

>  <MWScore>
0.0

>  <bpKaScore>
1.0

>  <logPScore>
1.0

>  <MPO_area>
33.33

>  <TPSA>
145.44

>  <logP>
1.81

$$$$

  Mrv1722703221715202D          

 58 61  0  0  0  0            999 V2000
    0.0000    0.0000    0.0000 O   0  0  0  0  0  0  0  0  0  0  0  0
    0.4004    0.7236    0.0000 C   0  0  0  0  0  0  0  0  0  0  0  0
    1.1802    0.4918    0.0000 O   0  0  0  0  0  0  0  0  0  0  0  0
   -0.2108    1.2856    0.0000 C   0  0  1  0  0  0  0  0  0  0  0  0
    1.9881    0.6252    0.0000 C   0  0  1  0  0  0  0  0  0  0  0  0
   -0.5269    2.0584    0.0000 C   0  0  1  0  0  0  0  0  0  0  0  0
   -0.7095    0.7377    0.0000 C   0  0  0  0  0  0  0  0  0  0  0  0
    2.6555    1.1030    0.0000 C   0  0  1  0  0  0  0  0  0  0  0  0
    2.2902   -0.1335    0.0000 C   0  0  0  0  0  0  0  0  0  0  0  0
   -1.3488    1.9389    0.0000 O   0  0  0  0  0  0  0  0  0  0  0  0
   -0.4777    2.8873    0.0000 C   0  0  1  0  0  0  0  0  0  0  0  0
    3.4634    0.9905    0.0000 O   0  0  0  0  0  0  0  0  0  0  0  0
    3.0278    2.0021    0.0000 C   0  0  1  0  0  0  0  0  0  0  0  0
    2.8381    0.3091    0.0000 C   0  0  0  0  0  0  0  0  0  0  0  0
    1.7774   -0.7728    0.0000 C   0  0  0  0  0  0  0  0  0  0  0  0
   -1.6509    1.1802    0.0000 C   0  0  2  0  0  0  0  0  0  0  0  0
   -0.0773    3.6109    0.0000 C   0  0  1  0  0  0  0  0  0  0  0  0
   -1.2715    3.1332    0.0000 C   0  0  0  0  0  0  0  0  0  0  0  0
    3.8357    2.1356    0.0000 O   0  0  0  0  0  0  0  0  0  0  0  0
    2.5010    2.6485    0.0000 C   0  0  2  0  0  0  0  0  0  0  0  0
   -1.1381    0.5479    0.0000 O   0  0  0  0  0  0  0  0  0  0  0  0
   -2.4729    1.0608    0.0000 C   0  0  0  0  0  0  0  0  0  0  0  0
   -0.6885    4.1729    0.0000 O   0  0  0  0  0  0  0  0  0  0  0  0
    0.5901    4.0886    0.0000 C   0  0  2  0  0  0  0  0  0  0  0  0
    4.1238    2.9084    0.0000 C   0  0  1  0  0  0  0  0  0  0  0  0
    2.7890    3.4212    0.0000 C   0  0  1  0  0  0  0  0  0  0  0  0
    1.6790    2.5290    0.0000 C   0  0  0  0  0  0  0  0  0  0  0  0
   -1.4401   -0.2108    0.0000 C   0  0  2  0  0  0  0  0  0  0  0  0
   -2.7749    0.3021    0.0000 C   0  0  2  0  0  0  0  0  0  0  0  0
   -0.5199    4.9808    0.0000 C   0  0  2  0  0  0  0  0  0  0  0  0
   -0.0984    4.5523    0.0000 O   0  0  0  0  0  0  0  0  0  0  0  0
    1.3980    4.2221    0.0000 C   0  0  0  0  0  0  0  0  0  0  0  0
    0.7587    4.8965    0.0000 C   0  0  0  0  0  0  0  0  0  0  0  0
    3.5969    3.5547    0.0000 N   0  0  0  0  0  0  0  0  0  0  0  0
    4.9316    3.0419    0.0000 C   0  0  0  0  0  0  0  0  0  0  0  0
    2.1778    3.9832    0.0000 C   0  0  1  0  0  0  0  0  0  0  0  0
   -2.2621   -0.3302    0.0000 C   0  0  1  0  0  0  0  0  0  0  0  0
   -0.9273   -0.8430    0.0000 C   0  0  0  0  0  0  0  0  0  0  0  0
   -3.3229   -0.3091    0.0000 O   0  0  0  0  0  0  0  0  0  0  0  0
   -3.4844    0.7306    0.0000 C   0  0  0  0  0  0  0  0  0  0  0  0
    0.2600    5.2337    0.0000 O   0  0  0  0  0  0  0  0  0  0  0  0
   -1.1311    5.5428    0.0000 C   0  0  2  0  0  0  0  0  0  0  0  0
    5.4445    2.4096    0.0000 O   0  0  0  0  0  0  0  0  0  0  0  0
    2.5782    4.7068    0.0000 C   0  0  0  0  0  0  0  0  0  0  0  0
   -2.5642   -1.0889    0.0000 O   0  0  0  0  0  0  0  0  0  0  0  0
   -4.1378   -0.1475    0.0000 C   0  0  0  0  0  0  0  0  0  0  0  0
    0.4285    6.0416    0.0000 C   0  0  1  0  0  0  0  0  0  0  0  0
   -1.9249    5.3040    0.0000 O   0  0  0  0  0  0  0  0  0  0  0  0
   -0.9624    6.3507    0.0000 C   0  0  2  0  0  0  0  0  0  0  0  0
    6.2524    2.5431    0.0000 C   0  0  0  0  0  0  0  0  0  0  0  0
   -0.1826    6.6036    0.0000 C   0  0  0  0  0  0  0  0  0  0  0  0
    1.2083    6.2945    0.0000 C   0  0  0  0  0  0  0  0  0  0  0  0
   -1.5736    6.9127    0.0000 N   0  0  0  0  0  0  0  0  0  0  0  0
    6.7652    1.9109    0.0000 C   0  0  0  0  0  0  0  0  0  0  0  0
   -1.4050    7.7206    0.0000 C   0  0  0  0  0  0  0  0  0  0  0  0
   -2.3675    6.6739    0.0000 C   0  0  0  0  0  0  0  0  0  0  0  0
    7.5731    2.0443    0.0000 O   0  0  0  0  0  0  0  0  0  0  0  0
    8.0859    1.4121    0.0000 C   0  0  0  0  0  0  0  0  0  0  0  0
  1  2  2  0  0  0  0
  2  3  1  0  0  0  0
  2  4  1  0  0  0  0
  3  5  1  0  0  0  0
  4  6  1  0  0  0  0
  4  7  1  6  0  0  0
  5  8  1  0  0  0  0
  5  9  1  1  0  0  0
  6 10  1  1  0  0  0
  6 11  1  0  0  0  0
  8 12  1  6  0  0  0
  8 13  1  0  0  0  0
  8 14  1  0  0  0  0
  9 15  1  0  0  0  0
 16 10  1  6  0  0  0
 11 17  1  0  0  0  0
 11 18  1  6  0  0  0
 13 19  1  6  0  0  0
 13 20  1  0  0  0  0
 16 21  1  0  0  0  0
 16 22  1  0  0  0  0
 17 23  1  1  0  0  0
 17 24  1  0  0  0  0
 19 25  1  0  0  0  0
 20 26  1  0  0  0  0
 20 27  1  1  0  0  0
 21 28  1  0  0  0  0
 22 29  1  0  0  0  0
 30 23  1  1  0  0  0
 24 31  1  6  0  0  0
 24 32  1  0  0  0  0
 24 33  1  0  0  0  0
 25 34  1  0  0  0  0
 25 35  1  1  0  0  0
 26 36  1  0  0  0  0
 28 37  1  0  0  0  0
 28 38  1  1  0  0  0
 29 39  1  6  0  0  0
 29 40  1  0  0  0  0
 30 41  1  0  0  0  0
 30 42  1  0  0  0  0
 35 43  1  0  0  0  0
 36 44  1  1  0  0  0
 37 45  1  6  0  0  0
 39 46  1  0  0  0  0
 41 47  1  0  0  0  0
 42 48  1  6  0  0  0
 42 49  1  0  0  0  0
 43 50  1  0  0  0  0
 47 51  1  0  0  0  0
 47 52  1  1  0  0  0
 49 53  1  1  0  0  0
 50 54  1  0  0  0  0
 53 55  1  0  0  0  0
 53 56  1  0  0  0  0
 54 57  1  0  0  0  0
 57 58  1  0  0  0  0
 26 34  1  6  0  0  0
 29 37  1  0  0  0  0
 32 36  1  0  0  0  0
 49 51  1  0  0  0  0
M  END

>  <name>
Dirithromycin

>  <ROTATABLE_BONDCOUNT>
12

>  <HBDScore>
0.0

>  <dipole>
6.58

>  <logD>
0.46

>  <MPOScore>
2.4349999999999996

>  <logDScore>
1.0

>  <MW>
835.086

>  <charge_dist(7.4)>
1.98

>  <CNS>
FALSE

>  <ArRings>
0

>  <HBD>
5

>  <BALABAN_INDEX>
1.80

>  <bpKa>
9.13

>  <TPSAScore>
0.0

>  <MWScore>
0.0

>  <bpKaScore>
0.4349999999999996

>  <logPScore>
1.0

>  <MPO_area>
23.92

>  <TPSA>
196.33

>  <logP>
2.95

$$$$

  Mrv1722703221715202D          

 25 26  0  0  0  0            999 V2000
    0.0000    0.0000    0.0000 O   0  0  0  0  0  0  0  0  0  0  0  0
    0.5153    0.6362    0.0000 C   0  0  0  0  0  0  0  0  0  0  0  0
    1.3168    0.5089    0.0000 N   0  0  0  0  0  0  0  0  0  0  0  0
    0.2227    1.4122    0.0000 C   0  0  2  0  0  0  0  0  0  0  0  0
   -0.0699    2.1884    0.0000 C   0  0  0  0  0  0  0  0  0  0  0  0
   -0.5535    1.1323    0.0000 C   0  0  0  0  0  0  0  0  0  0  0  0
    0.9860    1.7049    0.0000 C   0  0  0  0  0  0  0  0  0  0  0  0
    0.4453    2.8245    0.0000 N   0  0  0  0  0  0  0  0  0  0  0  0
   -0.8843    2.3283    0.0000 C   0  0  0  0  0  0  0  0  0  0  0  0
   -1.1896    1.6603    0.0000 C   0  0  0  0  0  0  0  0  0  0  0  0
   -0.6934    0.3308    0.0000 C   0  0  0  0  0  0  0  0  0  0  0  0
    1.6094    1.1896    0.0000 C   0  0  0  0  0  0  0  0  0  0  0  0
    0.1527    3.6006    0.0000 C   0  0  0  0  0  0  0  0  0  0  0  0
   -1.1769    3.1044    0.0000 C   0  0  0  0  0  0  0  0  0  0  0  0
   -1.9657    1.3804    0.0000 C   0  0  0  0  0  0  0  0  0  0  0  0
   -1.4695    0.0509    0.0000 C   0  0  0  0  0  0  0  0  0  0  0  0
    2.3729    1.4822    0.0000 N   0  0  0  0  0  0  0  0  0  0  0  0
   -0.6616    3.7406    0.0000 C   0  0  0  0  0  0  0  0  0  0  0  0
   -2.1056    0.5789    0.0000 C   0  0  0  0  0  0  0  0  0  0  0  0
    2.9963    0.9670    0.0000 C   0  0  0  0  0  0  0  0  0  0  0  0
    2.5001    2.2965    0.0000 C   0  0  0  0  0  0  0  0  0  0  0  0
    3.7596    1.2596    0.0000 C   0  0  0  0  0  0  0  0  0  0  0  0
    2.8563    0.1654    0.0000 C   0  0  0  0  0  0  0  0  0  0  0  0
    3.2635    2.5891    0.0000 C   0  0  0  0  0  0  0  0  0  0  0  0
    1.8639    2.8245    0.0000 C   0  0  0  0  0  0  0  0  0  0  0  0
  1  2  2  0  0  0  0
  2  3  1  0  0  0  0
  2  4  1  0  0  0  0
  4  5  1  1  0  0  0
  4  6  1  0  0  0  0
  4  7  1  0  0  0  0
  5  8  2  0  0  0  0
  5  9  1  0  0  0  0
  6 10  2  0  0  0  0
  6 11  1  0  0  0  0
  7 12  1  0  0  0  0
  8 13  1  0  0  0  0
  9 14  2  0  0  0  0
 10 15  1  0  0  0  0
 11 16  2  0  0  0  0
 12 17  1  0  0  0  0
 13 18  2  0  0  0  0
 15 19  2  0  0  0  0
 17 20  1  0  0  0  0
 17 21  1  0  0  0  0
 20 22  1  0  0  0  0
 20 23  1  0  0  0  0
 21 24  1  0  0  0  0
 21 25  1  0  0  0  0
 14 18  1  0  0  0  0
 16 19  1  0  0  0  0
M  END

>  <name>
Disopyramide

>  <ROTATABLE_BONDCOUNT>
8

>  <HBDScore>
0.8333333333333334

>  <dipole>
3.88

>  <logD>
0.57

>  <MPOScore>
4.598333333333333

>  <logDScore>
1.0

>  <MW>
339.483

>  <charge_dist(7.4)>
1.00

>  <CNS>
FALSE

>  <ArRings>
2

>  <HBD>
1

>  <BALABAN_INDEX>
2.07

>  <bpKa>
10.42

>  <TPSAScore>
1.0

>  <MWScore>
1.0

>  <bpKaScore>
0.0

>  <logPScore>
0.7649999999999999

>  <MPO_area>
57.85

>  <TPSA>
59.22

>  <logP>
3.47

$$$$

  Mrv1722703221715202D          

 29 30  0  0  0  0            999 V2000
    0.0000    0.0000    0.0000 S   0  0  0  0  0  0  0  0  0  0  0  0
   -0.7090   -0.4125    0.0000 O   0  0  0  0  0  0  0  0  0  0  0  0
    0.6961    0.4254    0.0000 O   0  0  0  0  0  0  0  0  0  0  0  0
   -0.4254    0.7090    0.0000 N   0  0  0  0  0  0  0  0  0  0  0  0
    0.4125   -0.6961    0.0000 C   0  0  0  0  0  0  0  0  0  0  0  0
   -1.2504    0.7090    0.0000 C   0  0  0  0  0  0  0  0  0  0  0  0
   -1.6565    0.0000    0.0000 C   0  0  0  0  0  0  0  0  0  0  0  0
   -1.6759    1.4180    0.0000 C   0  0  0  0  0  0  0  0  0  0  0  0
   -2.4815    0.0000    0.0000 C   0  0  0  0  0  0  0  0  0  0  0  0
   -2.5009    1.4180    0.0000 C   0  0  0  0  0  0  0  0  0  0  0  0
   -2.9070    0.7090    0.0000 C   0  0  0  0  0  0  0  0  0  0  0  0
   -3.7320    0.7090    0.0000 O   0  0  0  0  0  0  0  0  0  0  0  0
   -4.1380    0.0000    0.0000 C   0  0  0  0  0  0  0  0  0  0  0  0
   -4.9631    0.0000    0.0000 C   0  0  0  0  0  0  0  0  0  0  0  0
   -5.3691   -0.7090    0.0000 N   0  0  0  0  0  0  0  0  0  0  0  0
   -6.1942   -0.7090    0.0000 C   0  0  0  0  0  0  0  0  0  0  0  0
   -4.9566   -1.4051    0.0000 C   0  0  0  0  0  0  0  0  0  0  0  0
   -6.6196    0.0000    0.0000 C   0  0  0  0  0  0  0  0  0  0  0  0
   -7.4446    0.0000    0.0000 C   0  0  0  0  0  0  0  0  0  0  0  0
   -7.8700    0.7090    0.0000 C   0  0  0  0  0  0  0  0  0  0  0  0
   -7.8507   -0.7090    0.0000 C   0  0  0  0  0  0  0  0  0  0  0  0
   -8.6950    0.7090    0.0000 C   0  0  0  0  0  0  0  0  0  0  0  0
   -8.6757   -0.7090    0.0000 C   0  0  0  0  0  0  0  0  0  0  0  0
   -9.1011    0.0000    0.0000 C   0  0  0  0  0  0  0  0  0  0  0  0
   -9.9261    0.0000    0.0000 N   0  0  0  0  0  0  0  0  0  0  0  0
  -10.3516    0.7090    0.0000 S   0  0  0  0  0  0  0  0  0  0  0  0
   -9.6554    1.1344    0.0000 O   0  0  0  0  0  0  0  0  0  0  0  0
  -11.0606    0.2965    0.0000 O   0  0  0  0  0  0  0  0  0  0  0  0
  -10.7769    1.4180    0.0000 C   0  0  0  0  0  0  0  0  0  0  0  0
  1  2  2  0  0  0  0
  1  3  2  0  0  0  0
  1  4  1  0  0  0  0
  1  5  1  0  0  0  0
  4  6  1  0  0  0  0
  6  7  2  0  0  0  0
  6  8  1  0  0  0  0
  7  9  1  0  0  0  0
  8 10  2  0  0  0  0
  9 11  2  0  0  0  0
 11 12  1  0  0  0  0
 12 13  1  0  0  0  0
 13 14  1  0  0  0  0
 14 15  1  0  0  0  0
 15 16  1  0  0  0  0
 15 17  1  0  0  0  0
 16 18  1  0  0  0  0
 18 19  1  0  0  0  0
 19 20  2  0  0  0  0
 19 21  1  0  0  0  0
 20 22  1  0  0  0  0
 21 23  2  0  0  0  0
 22 24  2  0  0  0  0
 24 25  1  0  0  0  0
 25 26  1  0  0  0  0
 26 27  2  0  0  0  0
 26 28  2  0  0  0  0
 26 29  1  0  0  0  0
 10 11  1  0  0  0  0
 23 24  1  0  0  0  0
M  END

>  <name>
Dofetilide

>  <ROTATABLE_BONDCOUNT>
9

>  <HBDScore>
0.5

>  <dipole>
9.39

>  <logD>
-1.05

>  <MPOScore>
3.9287619047619042

>  <logDScore>
1.0

>  <MW>
441.56

>  <charge_dist(7.4)>
0.97

>  <CNS>
FALSE

>  <ArRings>
2

>  <HBD>
2

>  <BALABAN_INDEX>
1.50

>  <bpKa>
8.99

>  <TPSAScore>
0.5063333333333333

>  <MWScore>
0.4174285714285715

>  <bpKaScore>
0.5049999999999999

>  <logPScore>
1.0

>  <MPO_area>
44.01

>  <TPSA>
104.81

>  <logP>
0.24

$$$$

  Mrv1722703221715202D          

 30 33  0  0  0  0            999 V2000
    0.0000    0.0000    0.0000 F   0  0  0  0  0  0  0  0  0  0  0  0
   -0.0645   -0.8124    0.0000 C   0  0  0  0  0  0  0  0  0  0  0  0
   -0.8124   -1.1606    0.0000 C   0  0  0  0  0  0  0  0  0  0  0  0
    0.6061   -1.2702    0.0000 C   0  0  0  0  0  0  0  0  0  0  0  0
   -0.8769   -1.9730    0.0000 C   0  0  0  0  0  0  0  0  0  0  0  0
   -1.4959   -0.6899    0.0000 C   0  0  0  0  0  0  0  0  0  0  0  0
    0.5416   -2.0826    0.0000 C   0  0  0  0  0  0  0  0  0  0  0  0
   -0.2063   -2.4308    0.0000 C   0  0  0  0  0  0  0  0  0  0  0  0
   -2.2438   -1.0381    0.0000 N   0  0  0  0  0  0  0  0  0  0  0  0
    1.2122   -2.5404    0.0000 F   0  0  0  0  0  0  0  0  0  0  0  0
   -2.9273   -0.5674    0.0000 C   0  0  0  0  0  0  0  0  0  0  0  0
   -2.8757    0.2579    0.0000 O   0  0  0  0  0  0  0  0  0  0  0  0
   -3.6752   -0.9156    0.0000 C   0  0  0  0  0  0  0  0  0  0  0  0
   -3.7397   -1.7280    0.0000 C   0  0  0  0  0  0  0  0  0  0  0  0
   -4.3587   -0.4449    0.0000 C   0  0  0  0  0  0  0  0  0  0  0  0
   -3.0691   -2.1858    0.0000 O   0  0  0  0  0  0  0  0  0  0  0  0
   -4.4876   -2.0762    0.0000 C   0  0  0  0  0  0  0  0  0  0  0  0
   -5.1066   -0.7931    0.0000 N   0  0  0  0  0  0  0  0  0  0  0  0
   -4.5521   -2.8886    0.0000 O   0  0  0  0  0  0  0  0  0  0  0  0
   -5.1711   -1.6055    0.0000 C   0  0  0  0  0  0  0  0  0  0  0  0
   -5.7901   -0.3224    0.0000 C   0  0  0  0  0  0  0  0  0  0  0  0
   -5.9190   -1.9537    0.0000 C   0  0  0  0  0  0  0  0  0  0  0  0
   -6.5380   -0.6705    0.0000 C   0  0  1  0  0  0  0  0  0  0  0  0
   -5.9835   -2.7661    0.0000 O   0  0  0  0  0  0  0  0  0  0  0  0
   -6.6025   -1.4830    0.0000 N   0  0  0  0  0  0  0  0  0  0  0  0
   -7.2214   -0.1999    0.0000 O   0  0  0  0  0  0  0  0  0  0  0  0
   -7.3504   -1.8312    0.0000 C   0  0  1  0  0  0  0  0  0  0  0  0
   -7.9694   -0.5481    0.0000 C   0  0  0  0  0  0  0  0  0  0  0  0
   -8.0339   -1.3605    0.0000 C   0  0  0  0  0  0  0  0  0  0  0  0
   -7.4149   -2.6436    0.0000 C   0  0  0  0  0  0  0  0  0  0  0  0
  1  2  1  0  0  0  0
  2  3  2  0  0  0  0
  2  4  1  0  0  0  0
  3  5  1  0  0  0  0
  3  6  1  0  0  0  0
  4  7  2  0  0  0  0
  5  8  2  0  0  0  0
  6  9  1  0  0  0  0
  7 10  1  0  0  0  0
  9 11  1  0  0  0  0
 11 12  2  0  0  0  0
 11 13  1  0  0  0  0
 13 14  1  0  0  0  0
 13 15  2  0  0  0  0
 14 16  2  0  0  0  0
 14 17  1  0  0  0  0
 15 18  1  0  0  0  0
 17 19  1  0  0  0  0
 17 20  2  0  0  0  0
 18 21  1  0  0  0  0
 20 22  1  0  0  0  0
 21 23  1  0  0  0  0
 22 24  2  0  0  0  0
 22 25  1  0  0  0  0
 23 26  1  1  0  0  0
 25 27  1  0  0  0  0
 26 28  1  0  0  0  0
 27 29  1  0  0  0  0
 27 30  1  6  0  0  0
  7  8  1  0  0  0  0
 18 20  1  0  0  0  0
 23 25  1  0  0  0  0
 28 29  1  0  0  0  0
M  END

>  <name>
Dolutegravir

>  <ROTATABLE_BONDCOUNT>
3

>  <HBDScore>
0.5

>  <dipole>
13.07

>  <logD>
1.10

>  <MPOScore>
4.769821428571428

>  <logDScore>
1.0

>  <MW>
419.385

>  <charge_dist(7.4)>
-0.00

>  <CNS>
FALSE

>  <ArRings>
2

>  <HBD>
2

>  <BALABAN_INDEX>
1.26

>  <bpKa>
-0.51

>  <TPSAScore>
0.6939999999999997

>  <MWScore>
0.5758214285714287

>  <bpKaScore>
1.0

>  <logPScore>
1.0

>  <MPO_area>
64.69

>  <TPSA>
99.18

>  <logP>
1.10

$$$$

  Mrv1722703221715202D          

 30 34  0  0  0  0            999 V2000
    0.0000    0.0000    0.0000 Cl  0  0  0  0  0  0  0  0  0  0  0  0
    0.5074    0.6506    0.0000 C   0  0  0  0  0  0  0  0  0  0  0  0
    0.2017    1.4247    0.0000 C   0  0  0  0  0  0  0  0  0  0  0  0
    1.3206    0.5335    0.0000 C   0  0  0  0  0  0  0  0  0  0  0  0
    0.7091    2.0752    0.0000 C   0  0  0  0  0  0  0  0  0  0  0  0
    1.8280    1.1840    0.0000 C   0  0  0  0  0  0  0  0  0  0  0  0
    0.5660    2.9014    0.0000 N   0  0  0  0  0  0  0  0  0  0  0  0
    1.5223    1.9581    0.0000 C   0  0  0  0  0  0  0  0  0  0  0  0
    1.2946    3.2917    0.0000 C   0  0  0  0  0  0  0  0  0  0  0  0
    1.8866    2.7062    0.0000 N   0  0  0  0  0  0  0  0  0  0  0  0
    1.4117    4.1179    0.0000 O   0  0  0  0  0  0  0  0  0  0  0  0
    2.6997    2.8494    0.0000 C   0  0  0  0  0  0  0  0  0  0  0  0
    3.2202    2.2184    0.0000 C   0  0  0  0  0  0  0  0  0  0  0  0
    2.9860    3.6300    0.0000 C   0  0  0  0  0  0  0  0  0  0  0  0
    4.0334    2.3615    0.0000 C   0  0  0  0  0  0  0  0  0  0  0  0
    3.7992    3.7732    0.0000 C   0  0  0  0  0  0  0  0  0  0  0  0
    4.3196    3.1421    0.0000 N   0  0  0  0  0  0  0  0  0  0  0  0
    5.1328    3.2853    0.0000 C   0  0  0  0  0  0  0  0  0  0  0  0
    5.6532    2.6542    0.0000 C   0  0  0  0  0  0  0  0  0  0  0  0
    6.4664    2.7973    0.0000 C   0  0  0  0  0  0  0  0  0  0  0  0
    6.9868    2.1663    0.0000 N   0  0  0  0  0  0  0  0  0  0  0  0
    6.7721    1.3726    0.0000 C   0  0  0  0  0  0  0  0  0  0  0  0
    7.8065    2.2249    0.0000 C   0  0  0  0  0  0  0  0  0  0  0  0
    5.9980    1.0734    0.0000 O   0  0  0  0  0  0  0  0  0  0  0  0
    7.4617    0.9368    0.0000 N   0  0  0  0  0  0  0  0  0  0  0  0
    8.0992    1.4637    0.0000 C   0  0  0  0  0  0  0  0  0  0  0  0
    8.3139    2.8754    0.0000 C   0  0  0  0  0  0  0  0  0  0  0  0
    8.9125    1.3466    0.0000 C   0  0  0  0  0  0  0  0  0  0  0  0
    9.1271    2.7583    0.0000 C   0  0  0  0  0  0  0  0  0  0  0  0
    9.4199    1.9971    0.0000 C   0  0  0  0  0  0  0  0  0  0  0  0
  1  2  1  0  0  0  0
  2  3  2  0  0  0  0
  2  4  1  0  0  0  0
  3  5  1  0  0  0  0
  4  6  2  0  0  0  0
  5  7  1  0  0  0  0
  5  8  2  0  0  0  0
  7  9  1  0  0  0  0
  8 10  1  0  0  0  0
  9 11  2  0  0  0  0
 10 12  1  0  0  0  0
 12 13  1  0  0  0  0
 12 14  1  0  0  0  0
 13 15  1  0  0  0  0
 14 16  1  0  0  0  0
 15 17  1  0  0  0  0
 17 18  1  0  0  0  0
 18 19  1  0  0  0  0
 19 20  1  0  0  0  0
 20 21  1  0  0  0  0
 21 22  1  0  0  0  0
 21 23  1  0  0  0  0
 22 24  2  0  0  0  0
 22 25  1  0  0  0  0
 23 26  2  0  0  0  0
 23 27  1  0  0  0  0
 26 28  1  0  0  0  0
 27 29  2  0  0  0  0
 28 30  2  0  0  0  0
  6  8  1  0  0  0  0
  9 10  1  0  0  0  0
 16 17  1  0  0  0  0
 25 26  1  0  0  0  0
 29 30  1  0  0  0  0
M  END

>  <name>
Domperidone

>  <ROTATABLE_BONDCOUNT>
5

>  <HBDScore>
0.5

>  <dipole>
6.33

>  <logD>
2.75

>  <MPOScore>
4.6541428571428565

>  <logDScore>
0.625

>  <MW>
425.92

>  <charge_dist(7.4)>
0.30

>  <CNS>
FALSE

>  <ArRings>
4

>  <HBD>
2

>  <BALABAN_INDEX>
0.94

>  <bpKa>
7.03

>  <TPSAScore>
1.0

>  <MWScore>
0.529142857142857

>  <bpKaScore>
1.0

>  <logPScore>
1.0

>  <MPO_area>
62.0

>  <TPSA>
67.92

>  <logP>
2.90

$$$$

  Mrv1722703221715202D          

 33 37  0  0  0  0            999 V2000
    0.0000    0.0000    0.0000 O   0  0  0  0  0  0  0  0  0  0  0  0
    0.1398    0.8131    0.0000 C   0  0  0  0  0  0  0  0  0  0  0  0
    0.9084    1.0926    0.0000 N   0  0  0  0  0  0  0  0  0  0  0  0
   -0.4891    1.3531    0.0000 C   0  0  1  0  0  0  0  0  0  0  0  0
    1.5246    0.5654    0.0000 C   0  0  0  0  0  0  0  0  0  0  0  0
    1.0481    1.9058    0.0000 C   0  0  0  0  0  0  0  0  0  0  0  0
   -1.2705    1.0863    0.0000 O   0  0  0  0  0  0  0  0  0  0  0  0
   -0.3494    2.1662    0.0000 C   0  0  0  0  0  0  0  0  0  0  0  0
    2.2932    0.8449    0.0000 C   0  0  0  0  0  0  0  0  0  0  0  0
    1.8168    2.1852    0.0000 C   0  0  0  0  0  0  0  0  0  0  0  0
   -1.8994    1.6262    0.0000 C   0  0  0  0  0  0  0  0  0  0  0  0
   -0.9783    2.7061    0.0000 O   0  0  0  0  0  0  0  0  0  0  0  0
    2.4330    1.6580    0.0000 N   0  0  0  0  0  0  0  0  0  0  0  0
   -1.7596    2.4393    0.0000 C   0  0  0  0  0  0  0  0  0  0  0  0
   -2.6808    1.3594    0.0000 C   0  0  0  0  0  0  0  0  0  0  0  0
    3.2017    1.9375    0.0000 C   0  0  0  0  0  0  0  0  0  0  0  0
   -2.3885    2.9793    0.0000 C   0  0  0  0  0  0  0  0  0  0  0  0
   -3.3096    1.8994    0.0000 C   0  0  0  0  0  0  0  0  0  0  0  0
    3.3414    2.7506    0.0000 N   0  0  0  0  0  0  0  0  0  0  0  0
    3.8179    1.4102    0.0000 N   0  0  0  0  0  0  0  0  0  0  0  0
   -3.1699    2.7125    0.0000 C   0  0  0  0  0  0  0  0  0  0  0  0
    4.1101    3.0302    0.0000 C   0  0  0  0  0  0  0  0  0  0  0  0
    4.5865    1.6898    0.0000 C   0  0  0  0  0  0  0  0  0  0  0  0
    4.2498    3.8432    0.0000 N   0  0  0  0  0  0  0  0  0  0  0  0
    4.7262    2.5029    0.0000 C   0  0  0  0  0  0  0  0  0  0  0  0
    5.2027    1.1625    0.0000 C   0  0  0  0  0  0  0  0  0  0  0  0
    5.4949    2.7824    0.0000 C   0  0  0  0  0  0  0  0  0  0  0  0
    5.9714    1.4420    0.0000 C   0  0  0  0  0  0  0  0  0  0  0  0
    6.1111    2.2552    0.0000 C   0  0  0  0  0  0  0  0  0  0  0  0
    6.5875    0.9148    0.0000 O   0  0  0  0  0  0  0  0  0  0  0  0
    6.8797    2.5346    0.0000 O   0  0  0  0  0  0  0  0  0  0  0  0
    6.4350    0.1143    0.0000 C   0  0  0  0  0  0  0  0  0  0  0  0
    7.4959    2.0074    0.0000 C   0  0  0  0  0  0  0  0  0  0  0  0
  1  2  2  0  0  0  0
  2  3  1  0  0  0  0
  4  2  1  1  0  0  0
  3  5  1  0  0  0  0
  3  6  1  0  0  0  0
  4  7  1  0  0  0  0
  4  8  1  0  0  0  0
  5  9  1  0  0  0  0
  6 10  1  0  0  0  0
  7 11  1  0  0  0  0
  8 12  1  0  0  0  0
  9 13  1  0  0  0  0
 11 14  2  0  0  0  0
 11 15  1  0  0  0  0
 13 16  1  0  0  0  0
 14 17  1  0  0  0  0
 15 18  2  0  0  0  0
 16 19  2  0  0  0  0
 16 20  1  0  0  0  0
 17 21  2  0  0  0  0
 19 22  1  0  0  0  0
 20 23  2  0  0  0  0
 22 24  1  0  0  0  0
 22 25  2  0  0  0  0
 23 26  1  0  0  0  0
 25 27  1  0  0  0  0
 26 28  2  0  0  0  0
 27 29  2  0  0  0  0
 28 30  1  0  0  0  0
 29 31  1  0  0  0  0
 30 32  1  0  0  0  0
 31 33  1  0  0  0  0
 10 13  1  0  0  0  0
 12 14  1  0  0  0  0
 18 21  1  0  0  0  0
 23 25  1  0  0  0  0
 28 29  1  0  0  0  0
M  END

>  <name>
Doxazosin

>  <ROTATABLE_BONDCOUNT>
4

>  <HBDScore>
0.8333333333333334

>  <dipole>
5.62

>  <logD>
1.91

>  <MPOScore>
4.437550000000001

>  <logDScore>
1.0

>  <MW>
451.483

>  <charge_dist(7.4)>
0.35

>  <CNS>
FALSE

>  <ArRings>
3

>  <HBD>
1

>  <BALABAN_INDEX>
1.09

>  <bpKa>
7.24

>  <TPSAScore>
0.2576666666666668

>  <MWScore>
0.34655

>  <bpKaScore>
1.0

>  <logPScore>
1.0

>  <MPO_area>
57.82

>  <TPSA>
112.27

>  <logP>
2.14

$$$$

  Mrv1722703221715202D          

 30 32  0  0  0  0            999 V2000
    0.0000    0.0000    0.0000 O   0  0  0  0  0  0  0  0  0  0  0  0
    0.2347   -0.7887    0.0000 C   0  0  1  0  0  0  0  0  0  0  0  0
    1.0365   -0.9713    0.0000 C   0  0  0  0  0  0  0  0  0  0  0  0
   -0.3390   -1.3884    0.0000 C   0  0  0  0  0  0  0  0  0  0  0  0
    1.2711   -1.7600    0.0000 C   0  0  0  0  0  0  0  0  0  0  0  0
    1.5970   -0.3585    0.0000 C   0  0  0  0  0  0  0  0  0  0  0  0
   -0.1043   -2.1771    0.0000 C   0  0  2  0  0  0  0  0  0  0  0  0
    2.0729   -1.9425    0.0000 C   0  0  0  0  0  0  0  0  0  0  0  0
    0.6975   -2.3597    0.0000 C   0  0  0  0  0  0  0  0  0  0  0  0
   -0.6779   -2.7769    0.0000 O   0  0  0  0  0  0  0  0  0  0  0  0
    2.6334   -1.3298    0.0000 C   0  0  0  0  0  0  0  0  0  0  0  0
    3.4352   -1.5123    0.0000 C   0  0  0  0  0  0  0  0  0  0  0  0
    3.9958   -0.8995    0.0000 C   0  0  2  0  0  0  0  0  0  0  0  0
    3.6699   -2.3010    0.0000 C   0  0  0  0  0  0  0  0  0  0  0  0
    4.7976   -1.0820    0.0000 C   0  0  2  0  0  0  0  0  0  0  0  0
    3.9176   -0.0652    0.0000 C   0  0  0  0  0  0  0  0  0  0  0  0
    4.4717   -2.4835    0.0000 C   0  0  0  0  0  0  0  0  0  0  0  0
    5.2213   -0.3650    0.0000 C   0  0  1  0  0  0  0  0  0  0  0  0
    5.0323   -1.8708    0.0000 C   0  0  0  0  0  0  0  0  0  0  0  0
    5.6124   -1.1798    0.0000 C   0  0  0  0  0  0  0  0  0  0  0  0
    4.6737    0.2673    0.0000 C   0  0  0  0  0  0  0  0  0  0  0  0
    6.0426   -0.2868    0.0000 C   0  0  2  0  0  0  0  0  0  0  0  0
    6.5120   -0.9648    0.0000 C   0  0  0  0  0  0  0  0  0  0  0  0
    6.3881    0.4693    0.0000 C   0  0  0  0  0  0  0  0  0  0  0  0
    7.3332   -0.8865    0.0000 C   0  0  0  0  0  0  0  0  0  0  0  0
    7.8026   -1.5644    0.0000 C   0  0  2  0  0  0  0  0  0  0  0  0
    7.4441   -2.3075    0.0000 C   0  0  0  0  0  0  0  0  0  0  0  0
    8.6239   -1.4862    0.0000 C   0  0  0  0  0  0  0  0  0  0  0  0
    7.9134   -2.9855    0.0000 C   0  0  0  0  0  0  0  0  0  0  0  0
    6.6097   -2.3727    0.0000 C   0  0  0  0  0  0  0  0  0  0  0  0
  2  1  1  1  0  0  0
  2  3  1  0  0  0  0
  2  4  1  0  0  0  0
  3  5  1  0  0  0  0
  3  6  2  0  0  0  0
  4  7  1  0  0  0  0
  5  8  2  0  0  0  0
  5  9  1  0  0  0  0
  7 10  1  6  0  0  0
  8 11  1  0  0  0  0
 11 12  2  0  0  0  0
 12 13  1  0  0  0  0
 12 14  1  0  0  0  0
 13 15  1  0  0  0  0
 13 16  1  1  0  0  0
 14 17  1  0  0  0  0
 15 18  1  0  0  0  0
 15 19  1  0  0  0  0
 15 20  1  1  0  0  0
 16 21  1  0  0  0  0
 18 22  1  0  0  0  0
 22 23  1  0  0  0  0
 22 24  1  1  0  0  0
 23 25  2  0  0  0  0
 25 26  1  0  0  0  0
 26 27  1  0  0  0  0
 26 28  1  1  0  0  0
 27 29  1  0  0  0  0
 27 30  1  0  0  0  0
  7  9  1  0  0  0  0
 17 19  1  0  0  0  0
 18 21  1  1  0  0  0
M  END

>  <name>
Doxercalciferol

>  <ROTATABLE_BONDCOUNT>
5

>  <HBDScore>
0.5

>  <dipole>
3.17

>  <logD>
5.75

>  <MPOScore>
3.1238714285714284

>  <logDScore>
0.0

>  <MW>
412.658

>  <charge_dist(7.4)>
-0.00

>  <CNS>
FALSE

>  <ArRings>
0

>  <HBD>
2

>  <BALABAN_INDEX>
1.57

>  <bpKa>
-2.76

>  <TPSAScore>
1.0

>  <MWScore>
0.6238714285714284

>  <bpKaScore>
1.0

>  <logPScore>
0.0

>  <MPO_area>
32.26

>  <TPSA>
40.46

>  <logP>
5.75

$$$$

  Mrv1722703221715202D          

 27 33  0  0  0  0            999 V2000
    0.0000    0.0000    0.0000 O   0  0  0  0  0  0  0  0  0  0  0  0
   -0.8264    0.0775    0.0000 C   0  0  0  0  0  0  0  0  0  0  0  0
   -1.1815    0.8264    0.0000 C   0  0  0  0  0  0  0  0  0  0  0  0
   -1.3042   -0.5875    0.0000 C   0  0  0  0  0  0  0  0  0  0  0  0
   -2.0079    0.9039    0.0000 C   0  0  0  0  0  0  0  0  0  0  0  0
   -2.1306   -0.5101    0.0000 C   0  0  0  0  0  0  0  0  0  0  0  0
   -2.4857    0.2389    0.0000 C   0  0  1  0  0  0  0  0  0  0  0  0
   -2.3630    1.6528    0.0000 C   0  0  2  0  0  0  0  0  0  0  0  0
   -3.3121    0.3164    0.0000 C   0  0  1  0  0  0  0  0  0  0  0  0
   -2.9634   -0.4261    0.0000 C   0  0  0  0  0  0  0  0  0  0  0  0
   -3.1894    1.7303    0.0000 C   0  0  1  0  0  0  0  0  0  0  0  0
   -2.7181    2.4017    0.0000 C   0  0  0  0  0  0  0  0  0  0  0  0
   -3.6672    1.0653    0.0000 C   0  0  2  0  0  0  0  0  0  0  0  0
   -3.7898   -0.3486    0.0000 C   0  0  0  0  0  0  0  0  0  0  0  0
   -4.4936    1.1427    0.0000 C   0  0  2  0  0  0  0  0  0  0  0  0
   -4.6162   -0.2712    0.0000 C   0  0  0  0  0  0  0  0  0  0  0  0
   -4.9713    0.4778    0.0000 C   0  0  1  0  0  0  0  0  0  0  0  0
   -4.9907    1.8013    0.0000 C   0  0  2  0  0  0  0  0  0  0  0  0
   -5.7590    0.7231    0.0000 C   0  0  1  0  0  0  0  0  0  0  0  0
   -5.3135   -0.1743    0.0000 C   0  0  0  0  0  0  0  0  0  0  0  0
   -5.7719    1.5430    0.0000 C   0  0  2  0  0  0  0  0  0  0  0  0
   -5.6170    2.3436    0.0000 C   0  0  0  0  0  0  0  0  0  0  0  0
   -5.7525   -0.0904    0.0000 O   0  0  0  0  0  0  0  0  0  0  0  0
   -6.5467    0.9684    0.0000 C   0  0  0  0  0  0  0  0  0  0  0  0
   -6.5337   -0.3486    0.0000 C   0  0  0  0  0  0  0  0  0  0  0  0
   -7.0244    0.3035    0.0000 C   0  0  0  0  0  0  0  0  0  0  0  0
   -6.7791   -1.1234    0.0000 O   0  0  0  0  0  0  0  0  0  0  0  0
  1  2  2  0  0  0  0
  2  3  1  0  0  0  0
  2  4  1  0  0  0  0
  3  5  2  0  0  0  0
  4  6  1  0  0  0  0
  5  7  1  0  0  0  0
  5  8  1  0  0  0  0
  7  9  1  0  0  0  0
  7 10  1  6  0  0  0
  8 11  1  0  0  0  0
  8 12  1  6  0  0  0
 13  9  1  1  0  0  0
  9 14  1  6  0  0  0
 15 13  1  6  0  0  0
 14 16  1  0  0  0  0
 15 17  1  0  0  0  0
 15 18  1  0  0  0  0
 17 19  1  0  0  0  0
 17 20  1  6  0  0  0
 18 21  1  0  0  0  0
 18 22  1  6  0  0  0
 19 23  1  0  0  0  0
 19 24  1  1  0  0  0
 23 25  1  0  0  0  0
 24 26  1  0  0  0  0
 25 27  2  0  0  0  0
  6  7  1  0  0  0  0
 11 12  1  6  0  0  0
 11 13  1  0  0  0  0
 16 17  1  0  0  0  0
 19 21  1  0  0  0  0
 21 22  1  6  0  0  0
 25 26  1  0  0  0  0
M  END

>  <name>
Drospirenone

>  <ROTATABLE_BONDCOUNT>
0

>  <HBDScore>
1.0

>  <dipole>
2.86

>  <logD>
3.37

>  <MPOScore>
5.083564285714286

>  <logDScore>
0.31499999999999995

>  <MW>
366.501

>  <charge_dist(7.4)>
-0.00

>  <CNS>
FALSE

>  <ArRings>
0

>  <HBD>
0

>  <BALABAN_INDEX>
1.25

>  <bpKa>
-4.95

>  <TPSAScore>
1.0

>  <MWScore>
0.9535642857142859

>  <bpKaScore>
1.0

>  <logPScore>
0.815

>  <MPO_area>
71.71

>  <TPSA>
43.37

>  <logP>
3.37

$$$$

  Mrv1722703221715202D          

 23 26  0  0  0  0            999 V2000
    0.0000    0.0000    0.0000 O   0  0  0  0  0  0  0  0  0  0  0  0
    0.8241    0.0392    0.0000 C   0  0  0  0  0  0  0  0  0  0  0  0
    1.2034    0.7848    0.0000 C   0  0  0  0  0  0  0  0  0  0  0  0
    1.2622   -0.6540    0.0000 C   0  0  0  0  0  0  0  0  0  0  0  0
    2.0275    0.8241    0.0000 C   0  0  0  0  0  0  0  0  0  0  0  0
    2.0863   -0.6148    0.0000 C   0  0  0  0  0  0  0  0  0  0  0  0
    2.4068    1.5696    0.0000 C   0  0  0  0  0  0  0  0  0  0  0  0
    2.4656    0.1308    0.0000 C   0  0  1  0  0  0  0  0  0  0  0  0
    3.2308    1.6089    0.0000 C   0  0  0  0  0  0  0  0  0  0  0  0
    3.2897    0.1700    0.0000 C   0  0  1  0  0  0  0  0  0  0  0  0
    2.9038   -0.5624    0.0000 C   0  0  0  0  0  0  0  0  0  0  0  0
    3.6691    0.9156    0.0000 C   0  0  2  0  0  0  0  0  0  0  0  0
    3.7279   -0.5232    0.0000 C   0  0  0  0  0  0  0  0  0  0  0  0
    4.4931    0.9549    0.0000 C   0  0  1  0  0  0  0  0  0  0  0  0
    4.5520   -0.4840    0.0000 C   0  0  0  0  0  0  0  0  0  0  0  0
    4.9313    0.2616    0.0000 C   0  0  2  0  0  0  0  0  0  0  0  0
    5.0163    1.6024    0.0000 C   0  0  0  0  0  0  0  0  0  0  0  0
    5.7292    0.4774    0.0000 C   0  0  2  0  0  0  0  0  0  0  0  0
    5.4414   -0.3859    0.0000 C   0  0  0  0  0  0  0  0  0  0  0  0
    5.7815    1.3015    0.0000 C   0  0  0  0  0  0  0  0  0  0  0  0
    6.3636   -0.0458    0.0000 C   0  0  0  0  0  0  0  0  0  0  0  0
    6.2197   -0.8568    0.0000 O   0  0  0  0  0  0  0  0  0  0  0  0
    7.1353    0.2485    0.0000 C   0  0  0  0  0  0  0  0  0  0  0  0
  1  2  2  0  0  0  0
  2  3  1  0  0  0  0
  2  4  1  0  0  0  0
  3  5  2  0  0  0  0
  4  6  1  0  0  0  0
  5  7  1  0  0  0  0
  5  8  1  0  0  0  0
  7  9  2  0  0  0  0
  8 10  1  0  0  0  0
  8 11  1  1  0  0  0
 12  9  1  1  0  0  0
 10 13  1  1  0  0  0
 12 14  1  0  0  0  0
 13 15  1  0  0  0  0
 14 16  1  0  0  0  0
 14 17  1  6  0  0  0
 16 18  1  0  0  0  0
 16 19  1  6  0  0  0
 17 20  1  0  0  0  0
 18 21  1  6  0  0  0
 21 22  2  0  0  0  0
 21 23  1  0  0  0  0
  6  8  1  0  0  0  0
 10 12  1  0  0  0  0
 15 16  1  0  0  0  0
 18 20  1  0  0  0  0
M  END

>  <name>
Dydrogesterone

>  <ROTATABLE_BONDCOUNT>
1

>  <HBDScore>
1.0

>  <dipole>
4.88

>  <logD>
3.79

>  <MPOScore>
4.417

>  <logDScore>
0.10499999999999998

>  <MW>
312.453

>  <charge_dist(7.4)>
-0.00

>  <CNS>
FALSE

>  <ArRings>
0

>  <HBD>
0

>  <BALABAN_INDEX>
1.54

>  <bpKa>
-4.77

>  <TPSAScore>
0.7070000000000001

>  <MWScore>
1.0

>  <bpKaScore>
1.0

>  <logPScore>
0.605

>  <MPO_area>
55.05

>  <TPSA>
34.14

>  <logP>
3.79

$$$$

  Mrv1722703221715202D          

 18 19  0  0  0  0            999 V2000
    0.0000    0.0000    0.0000 O   0  0  0  0  0  0  0  0  0  0  0  0
   -0.8277   -0.0259    0.0000 C   0  0  0  0  0  0  0  0  0  0  0  0
   -1.2674    0.6790    0.0000 N   0  0  0  0  0  0  0  0  0  0  0  0
   -1.2157   -0.7437    0.0000 N   0  0  0  0  0  0  0  0  0  0  0  0
   -2.0952    0.6531    0.0000 C   0  0  0  0  0  0  0  0  0  0  0  0
   -0.8924    1.4097    0.0000 C   0  0  0  0  0  0  0  0  0  0  0  0
   -2.0434   -0.7695    0.0000 C   0  0  0  0  0  0  0  0  0  0  0  0
   -0.7890   -1.4356    0.0000 C   0  0  0  0  0  0  0  0  0  0  0  0
   -2.5414    1.3580    0.0000 O   0  0  0  0  0  0  0  0  0  0  0  0
   -2.4896   -0.0647    0.0000 C   0  0  0  0  0  0  0  0  0  0  0  0
   -2.5802   -1.3903    0.0000 N   0  0  0  0  0  0  0  0  0  0  0  0
   -3.2915   -0.2586    0.0000 N   0  0  0  0  0  0  0  0  0  0  0  0
   -3.3497   -1.0799    0.0000 C   0  0  0  0  0  0  0  0  0  0  0  0
   -3.9252    0.2781    0.0000 C   0  0  0  0  0  0  0  0  0  0  0  0
   -4.7012    0.0000    0.0000 C   0  0  2  0  0  0  0  0  0  0  0  0
   -4.8499   -0.8019    0.0000 O   0  0  0  0  0  0  0  0  0  0  0  0
   -5.3349    0.5367    0.0000 C   0  0  0  0  0  0  0  0  0  0  0  0
   -6.1109    0.2586    0.0000 O   0  0  0  0  0  0  0  0  0  0  0  0
  1  2  2  0  0  0  0
  2  3  1  0  0  0  0
  2  4  1  0  0  0  0
  3  5  1  0  0  0  0
  3  6  1  0  0  0  0
  4  7  1  0  0  0  0
  4  8  1  0  0  0  0
  5  9  2  0  0  0  0
  5 10  1  0  0  0  0
  7 11  1  0  0  0  0
 10 12  1  0  0  0  0
 11 13  2  0  0  0  0
 12 14  1  0  0  0  0
 14 15  1  0  0  0  0
 15 16  1  6  0  0  0
 15 17  1  0  0  0  0
 17 18  1  0  0  0  0
  7 10  2  0  0  0  0
 12 13  1  0  0  0  0
M  END

>  <name>
Dyphylline

>  <ROTATABLE_BONDCOUNT>
3

>  <HBDScore>
0.5

>  <dipole>
5.14

>  <logD>
-1.87

>  <MPOScore>
5.203333333333333

>  <logDScore>
1.0

>  <MW>
254.246

>  <charge_dist(7.4)>
-0.00

>  <CNS>
FALSE

>  <ArRings>
2

>  <HBD>
2

>  <BALABAN_INDEX>
2.00

>  <bpKa>
-1.25

>  <TPSAScore>
0.7033333333333331

>  <MWScore>
1.0

>  <bpKaScore>
1.0

>  <logPScore>
1.0

>  <MPO_area>
75.92

>  <TPSA>
98.90

>  <logP>
-1.87

$$$$

  Mrv1722703221715202D          

 37 40  0  0  0  0            999 V2000
    0.0000    0.0000    0.0000 Cl  0  0  0  0  0  0  0  0  0  0  0  0
    0.8000    0.2016    0.0000 C   0  0  0  0  0  0  0  0  0  0  0  0
    1.0277    1.0016    0.0000 C   0  0  0  0  0  0  0  0  0  0  0  0
    1.3594   -0.3903    0.0000 C   0  0  0  0  0  0  0  0  0  0  0  0
    1.8277    1.2033    0.0000 N   0  0  0  0  0  0  0  0  0  0  0  0
    2.1594   -0.1886    0.0000 C   0  0  0  0  0  0  0  0  0  0  0  0
    2.3870    0.6114    0.0000 C   0  0  0  0  0  0  0  0  0  0  0  0
    3.1871    0.8130    0.0000 N   0  0  0  0  0  0  0  0  0  0  0  0
    3.7464    0.2212    0.0000 C   0  0  0  0  0  0  0  0  0  0  0  0
    3.5057   -0.5659    0.0000 O   0  0  0  0  0  0  0  0  0  0  0  0
    4.5464    0.4227    0.0000 C   0  0  0  0  0  0  0  0  0  0  0  0
    4.7741    1.2228    0.0000 O   0  0  0  0  0  0  0  0  0  0  0  0
    5.1058   -0.1691    0.0000 N   0  0  0  0  0  0  0  0  0  0  0  0
    5.9058    0.0325    0.0000 C   0  0  1  0  0  0  0  0  0  0  0  0
    6.4651   -0.5593    0.0000 C   0  0  1  0  0  0  0  0  0  0  0  0
    6.1334    0.8325    0.0000 C   0  0  0  0  0  0  0  0  0  0  0  0
    6.2245   -1.3464    0.0000 N   0  0  0  0  0  0  0  0  0  0  0  0
    7.2651   -0.3577    0.0000 C   0  0  0  0  0  0  0  0  0  0  0  0
    6.9334    1.0342    0.0000 C   0  0  0  0  0  0  0  0  0  0  0  0
    5.4114   -1.5350    0.0000 C   0  0  0  0  0  0  0  0  0  0  0  0
    7.4928    0.4423    0.0000 C   0  0  1  0  0  0  0  0  0  0  0  0
    4.8391   -0.9301    0.0000 O   0  0  0  0  0  0  0  0  0  0  0  0
    5.1708   -2.3220    0.0000 C   0  0  0  0  0  0  0  0  0  0  0  0
    8.2928    0.6439    0.0000 C   0  0  0  0  0  0  0  0  0  0  0  0
    5.6651   -2.9724    0.0000 S   0  0  0  0  0  0  0  0  0  0  0  0
    4.3838   -2.5887    0.0000 N   0  0  0  0  0  0  0  0  0  0  0  0
    8.5205    1.4439    0.0000 O   0  0  0  0  0  0  0  0  0  0  0  0
    8.8522    0.0520    0.0000 N   0  0  0  0  0  0  0  0  0  0  0  0
    5.1903   -3.6488    0.0000 C   0  0  0  0  0  0  0  0  0  0  0  0
    4.3968   -3.4081    0.0000 C   0  0  0  0  0  0  0  0  0  0  0  0
    9.6521    0.2537    0.0000 C   0  0  0  0  0  0  0  0  0  0  0  0
    8.6115   -0.7350    0.0000 C   0  0  0  0  0  0  0  0  0  0  0  0
    5.3790   -4.4489    0.0000 C   0  0  0  0  0  0  0  0  0  0  0  0
    3.7919   -3.9675    0.0000 C   0  0  0  0  0  0  0  0  0  0  0  0
    4.7741   -5.0082    0.0000 N   0  0  0  0  0  0  0  0  0  0  0  0
    3.9806   -4.7675    0.0000 C   0  0  0  0  0  0  0  0  0  0  0  0
    4.9626   -5.8082    0.0000 C   0  0  0  0  0  0  0  0  0  0  0  0
  1  2  1  0  0  0  0
  2  3  2  0  0  0  0
  2  4  1  0  0  0  0
  3  5  1  0  0  0  0
  4  6  2  0  0  0  0
  5  7  2  0  0  0  0
  7  8  1  0  0  0  0
  8  9  1  0  0  0  0
  9 10  2  0  0  0  0
  9 11  1  0  0  0  0
 11 12  2  0  0  0  0
 11 13  1  0  0  0  0
 14 13  1  6  0  0  0
 14 15  1  0  0  0  0
 14 16  1  0  0  0  0
 15 17  1  6  0  0  0
 15 18  1  0  0  0  0
 16 19  1  0  0  0  0
 17 20  1  0  0  0  0
 18 21  1  0  0  0  0
 20 22  2  0  0  0  0
 20 23  1  0  0  0  0
 21 24  1  1  0  0  0
 23 25  1  0  0  0  0
 23 26  2  0  0  0  0
 24 27  2  0  0  0  0
 24 28  1  0  0  0  0
 25 29  1  0  0  0  0
 26 30  1  0  0  0  0
 28 31  1  0  0  0  0
 28 32  1  0  0  0  0
 29 33  1  0  0  0  0
 30 34  1  0  0  0  0
 33 35  1  0  0  0  0
 34 36  1  0  0  0  0
 35 37  1  0  0  0  0
  6  7  1  0  0  0  0
 19 21  1  0  0  0  0
 29 30  2  0  0  0  0
 35 36  1  0  0  0  0
M  END

>  <name>
Edoxaban

>  <ROTATABLE_BONDCOUNT>
6

>  <HBDScore>
0.16666666666666674

>  <dipole>
8.26

>  <logD>
0.87

>  <MPOScore>
3.166666666666667

>  <logDScore>
1.0

>  <MW>
548.06

>  <charge_dist(7.4)>
0.08

>  <CNS>
FALSE

>  <ArRings>
2

>  <HBD>
3

>  <BALABAN_INDEX>
1.35

>  <bpKa>
6.33

>  <TPSAScore>
0.0

>  <MWScore>
0.0

>  <bpKaScore>
1.0

>  <logPScore>
1.0

>  <MPO_area>
36.11

>  <TPSA>
136.63

>  <logP>
0.90

$$$$

  Mrv1722703221715202D          

 33 36  0  0  0  0            999 V2000
    0.0000    0.0000    0.0000 O   0  0  0  0  0  0  0  0  0  0  0  0
   -0.4611    0.6950    0.0000 C   0  0  0  0  0  0  0  0  0  0  0  0
   -1.2926    0.6560    0.0000 C   0  0  0  0  0  0  0  0  0  0  0  0
   -0.0974    1.4420    0.0000 C   0  0  0  0  0  0  0  0  0  0  0  0
   -1.6693   -0.0779    0.0000 C   0  0  0  0  0  0  0  0  0  0  0  0
   -1.7538    1.3511    0.0000 C   0  0  0  0  0  0  0  0  0  0  0  0
    0.7210    1.4939    0.0000 N   0  0  0  0  0  0  0  0  0  0  0  0
   -0.5586    2.1370    0.0000 C   0  0  0  0  0  0  0  0  0  0  0  0
   -2.5007   -0.1169    0.0000 C   0  0  0  0  0  0  0  0  0  0  0  0
   -1.2211   -0.7600    0.0000 C   0  0  0  0  0  0  0  0  0  0  0  0
   -1.3900    2.0980    0.0000 C   0  0  0  0  0  0  0  0  0  0  0  0
    1.1692    0.8119    0.0000 N   0  0  0  0  0  0  0  0  0  0  0  0
   -2.8774   -0.8509    0.0000 C   0  0  0  0  0  0  0  0  0  0  0  0
   -1.5979   -1.4939    0.0000 C   0  0  0  0  0  0  0  0  0  0  0  0
    1.9876    0.8639    0.0000 C   0  0  0  0  0  0  0  0  0  0  0  0
   -3.7089   -0.8899    0.0000 C   0  0  0  0  0  0  0  0  0  0  0  0
   -2.4293   -1.5329    0.0000 C   0  0  0  0  0  0  0  0  0  0  0  0
    2.5072    0.2338    0.0000 C   0  0  0  0  0  0  0  0  0  0  0  0
    2.4293    1.5654    0.0000 C   0  0  0  0  0  0  0  0  0  0  0  0
   -4.0856   -1.6238    0.0000 O   0  0  0  0  0  0  0  0  0  0  0  0
   -4.1700   -0.1949    0.0000 O   0  0  0  0  0  0  0  0  0  0  0  0
    2.2929   -0.5586    0.0000 O   0  0  0  0  0  0  0  0  0  0  0  0
    3.2672    0.5391    0.0000 N   0  0  0  0  0  0  0  0  0  0  0  0
    3.2217    1.3640    0.0000 N   0  0  0  0  0  0  0  0  0  0  0  0
    2.1240    2.3383    0.0000 C   0  0  0  0  0  0  0  0  0  0  0  0
    3.9557    0.0974    0.0000 C   0  0  0  0  0  0  0  0  0  0  0  0
    3.9102   -0.7210    0.0000 C   0  0  0  0  0  0  0  0  0  0  0  0
    4.6832    0.4807    0.0000 C   0  0  0  0  0  0  0  0  0  0  0  0
    4.5987   -1.1627    0.0000 C   0  0  0  0  0  0  0  0  0  0  0  0
    5.3717    0.0390    0.0000 C   0  0  0  0  0  0  0  0  0  0  0  0
    5.3262   -0.7794    0.0000 C   0  0  0  0  0  0  0  0  0  0  0  0
    4.5533   -1.9811    0.0000 C   0  0  0  0  0  0  0  0  0  0  0  0
    6.0147   -1.2211    0.0000 C   0  0  0  0  0  0  0  0  0  0  0  0
  1  2  2  0  0  0  0
  2  3  1  0  0  0  0
  2  4  1  0  0  0  0
  3  5  1  0  0  0  0
  3  6  2  0  0  0  0
  4  7  2  3  0  0  0
  4  8  1  0  0  0  0
  5  9  2  0  0  0  0
  5 10  1  0  0  0  0
  6 11  1  0  0  0  0
  7 12  1  0  0  0  0
  9 13  1  0  0  0  0
 10 14  2  0  0  0  0
 12 15  1  0  0  0  0
 13 16  1  0  0  0  0
 13 17  2  0  0  0  0
 15 18  1  0  0  0  0
 15 19  2  0  0  0  0
 16 20  2  0  0  0  0
 16 21  1  0  0  0  0
 18 22  2  0  0  0  0
 18 23  1  0  0  0  0
 19 24  1  0  0  0  0
 19 25  1  0  0  0  0
 23 26  1  0  0  0  0
 26 27  2  0  0  0  0
 26 28  1  0  0  0  0
 27 29  1  0  0  0  0
 28 30  2  0  0  0  0
 29 31  2  0  0  0  0
 29 32  1  0  0  0  0
 31 33  1  0  0  0  0
  8 11  2  0  0  0  0
 14 17  1  0  0  0  0
 23 24  1  0  0  0  0
 30 31  1  0  0  0  0
M  END

>  <name>
Eltrombopag

>  <ROTATABLE_BONDCOUNT>
5

>  <HBDScore>
0.16666666666666674

>  <dipole>
11.53

>  <logD>
0.76

>  <MPOScore>
3.054226190476191

>  <logDScore>
1.0

>  <MW>
442.475

>  <charge_dist(7.4)>
-1.85

>  <CNS>
FALSE

>  <ArRings>
3

>  <HBD>
3

>  <BALABAN_INDEX>
1.27

>  <bpKa>
0.65

>  <TPSAScore>
0.29666666666666686

>  <MWScore>
0.41089285714285695

>  <bpKaScore>
1.0

>  <logPScore>
0.18000000000000016

>  <MPO_area>
29.71

>  <TPSA>
111.10

>  <logP>
4.64

$$$$

  Mrv1722703221715202D          

 31 34  0  0  0  0            999 V2000
    0.0000    0.0000    0.0000 Cl  0  0  0  0  0  0  0  0  0  0  0  0
    0.7729    0.2641    0.0000 C   0  0  0  0  0  0  0  0  0  0  0  0
    0.9340    1.0757    0.0000 C   0  0  0  0  0  0  0  0  0  0  0  0
    1.3784   -0.2770    0.0000 C   0  0  0  0  0  0  0  0  0  0  0  0
    1.7069    1.3398    0.0000 C   0  0  0  0  0  0  0  0  0  0  0  0
    0.3156    1.6296    0.0000 C   0  0  0  0  0  0  0  0  0  0  0  0
    2.1514   -0.0129    0.0000 C   0  0  0  0  0  0  0  0  0  0  0  0
    2.3124    0.7987    0.0000 C   0  0  0  0  0  0  0  0  0  0  0  0
   -0.4702    1.3784    0.0000 C   0  0  0  0  0  0  0  0  0  0  0  0
    3.0854    1.0628    0.0000 C   0  0  1  0  0  0  0  0  0  0  0  0
   -0.6441    0.5797    0.0000 C   0  0  0  0  0  0  0  0  0  0  0  0
   -1.0886    1.9324    0.0000 C   0  0  0  0  0  0  0  0  0  0  0  0
    3.2464    1.8744    0.0000 O   0  0  0  0  0  0  0  0  0  0  0  0
    3.6909    0.5217    0.0000 C   0  0  1  0  0  0  0  0  0  0  0  0
   -1.4299    0.3285    0.0000 C   0  0  0  0  0  0  0  0  0  0  0  0
   -1.8744    1.6812    0.0000 C   0  0  0  0  0  0  0  0  0  0  0  0
    4.0194    2.1385    0.0000 C   0  0  2  0  0  0  0  0  0  0  0  0
    3.5170   -0.2770    0.0000 O   0  0  0  0  0  0  0  0  0  0  0  0
    4.4638    0.7858    0.0000 C   0  0  1  0  0  0  0  0  0  0  0  0
   -2.0483    0.8825    0.0000 C   0  0  0  0  0  0  0  0  0  0  0  0
    4.6249    1.5975    0.0000 C   0  0  1  0  0  0  0  0  0  0  0  0
    4.1804    2.9501    0.0000 C   0  0  0  0  0  0  0  0  0  0  0  0
    5.0693    0.2447    0.0000 O   0  0  0  0  0  0  0  0  0  0  0  0
   -2.8342    0.6312    0.0000 O   0  0  0  0  0  0  0  0  0  0  0  0
    5.3978    1.8616    0.0000 O   0  0  0  0  0  0  0  0  0  0  0  0
    3.5620    3.5041    0.0000 O   0  0  0  0  0  0  0  0  0  0  0  0
   -3.4526    1.1852    0.0000 C   0  0  1  0  0  0  0  0  0  0  0  0
   -4.2641    1.0177    0.0000 C   0  0  0  0  0  0  0  0  0  0  0  0
   -3.3753    2.0097    0.0000 C   0  0  0  0  0  0  0  0  0  0  0  0
   -4.6828    1.7327    0.0000 O   0  0  0  0  0  0  0  0  0  0  0  0
   -4.1353    2.3446    0.0000 C   0  0  0  0  0  0  0  0  0  0  0  0
  1  2  1  0  0  0  0
  2  3  2  0  0  0  0
  2  4  1  0  0  0  0
  3  5  1  0  0  0  0
  3  6  1  0  0  0  0
  4  7  2  0  0  0  0
  5  8  2  0  0  0  0
  6  9  1  0  0  0  0
 10  8  1  1  0  0  0
  9 11  2  0  0  0  0
  9 12  1  0  0  0  0
 10 13  1  0  0  0  0
 10 14  1  0  0  0  0
 11 15  1  0  0  0  0
 12 16  2  0  0  0  0
 13 17  1  0  0  0  0
 14 18  1  6  0  0  0
 14 19  1  0  0  0  0
 15 20  2  0  0  0  0
 17 21  1  0  0  0  0
 17 22  1  1  0  0  0
 19 23  1  1  0  0  0
 20 24  1  0  0  0  0
 21 25  1  6  0  0  0
 22 26  1  0  0  0  0
 27 24  1  1  0  0  0
 27 28  1  0  0  0  0
 27 29  1  0  0  0  0
 28 30  1  0  0  0  0
 29 31  1  0  0  0  0
  7  8  1  0  0  0  0
 16 20  1  0  0  0  0
 19 21  1  0  0  0  0
 30 31  1  0  0  0  0
M  END

>  <name>
Empagliflozin

>  <ROTATABLE_BONDCOUNT>
6

>  <HBDScore>
0.0

>  <dipole>
7.27

>  <logD>
1.66

>  <MPOScore>
3.7303095238095234

>  <logDScore>
1.0

>  <MW>
450.91

>  <charge_dist(7.4)>
-0.00

>  <CNS>
FALSE

>  <ArRings>
2

>  <HBD>
4

>  <BALABAN_INDEX>
1.13

>  <bpKa>
-2.98

>  <TPSAScore>
0.3796666666666667

>  <MWScore>
0.35064285714285703

>  <bpKaScore>
1.0

>  <logPScore>
1.0

>  <MPO_area>
41.88

>  <TPSA>
108.61

>  <logP>
1.66

$$$$

  Mrv1722703221715202D          

 16 17  0  0  0  0            999 V2000
    0.0000    0.0000    0.0000 S   0  0  0  0  0  0  0  0  0  0  0  0
    0.1271    0.8135    0.0000 C   0  0  1  0  0  0  0  0  0  0  0  0
   -0.8135   -0.1208    0.0000 C   0  0  0  0  0  0  0  0  0  0  0  0
   -0.6038    1.1949    0.0000 O   0  0  0  0  0  0  0  0  0  0  0  0
    0.8516    1.1885    0.0000 C   0  0  0  0  0  0  0  0  0  0  0  0
   -1.1885    0.6165    0.0000 C   0  0  2  0  0  0  0  0  0  0  0  0
    1.5253    0.7499    0.0000 O   0  0  0  0  0  0  0  0  0  0  0  0
   -2.0020    0.7563    0.0000 N   0  0  0  0  0  0  0  0  0  0  0  0
   -2.3007    1.5253    0.0000 C   0  0  0  0  0  0  0  0  0  0  0  0
   -2.5232    0.1335    0.0000 C   0  0  0  0  0  0  0  0  0  0  0  0
   -1.7923    2.1609    0.0000 O   0  0  0  0  0  0  0  0  0  0  0  0
   -3.1142    1.6651    0.0000 N   0  0  0  0  0  0  0  0  0  0  0  0
   -3.3366    0.2733    0.0000 C   0  0  0  0  0  0  0  0  0  0  0  0
   -3.6354    1.0423    0.0000 C   0  0  0  0  0  0  0  0  0  0  0  0
   -3.8578   -0.3496    0.0000 F   0  0  0  0  0  0  0  0  0  0  0  0
   -4.4489    1.1821    0.0000 N   0  0  0  0  0  0  0  0  0  0  0  0
  1  2  1  0  0  0  0
  1  3  1  0  0  0  0
  2  4  1  0  0  0  0
  2  5  1  1  0  0  0
  3  6  1  0  0  0  0
  5  7  1  0  0  0  0
  6  8  1  1  0  0  0
  8  9  1  0  0  0  0
  8 10  1  0  0  0  0
  9 11  2  0  0  0  0
  9 12  1  0  0  0  0
 10 13  2  0  0  0  0
 12 14  2  0  0  0  0
 13 15  1  0  0  0  0
 14 16  1  0  0  0  0
  4  6  1  0  0  0  0
 13 14  1  0  0  0  0
M  END

>  <name>
Emtricitabine

>  <ROTATABLE_BONDCOUNT>
2

>  <HBDScore>
0.5

>  <dipole>
8.77

>  <logD>
-0.90

>  <MPOScore>
5.5

>  <logDScore>
1.0

>  <MW>
247.24

>  <charge_dist(7.4)>
-0.00

>  <CNS>
FALSE

>  <ArRings>
1

>  <HBD>
2

>  <BALABAN_INDEX>
1.71

>  <bpKa>
-3.11

>  <TPSAScore>
1.0

>  <MWScore>
1.0

>  <bpKaScore>
1.0

>  <logPScore>
1.0

>  <MPO_area>
83.33

>  <TPSA>
88.15

>  <logP>
-0.90

$$$$

  Mrv1722703221715202D          

 27 28  0  0  0  0            999 V2000
    0.0000    0.0000    0.0000 O   0  0  0  0  0  0  0  0  0  0  0  0
   -0.7156    0.4359    0.0000 C   0  0  0  0  0  0  0  0  0  0  0  0
   -1.4443    0.0455    0.0000 O   0  0  0  0  0  0  0  0  0  0  0  0
   -0.7026    1.2687    0.0000 C   0  0  1  0  0  0  0  0  0  0  0  0
   -0.0325    1.7436    0.0000 N   0  0  0  0  0  0  0  0  0  0  0  0
   -1.3663    1.7761    0.0000 C   0  0  0  0  0  0  0  0  0  0  0  0
    0.7417    1.4769    0.0000 C   0  0  0  0  0  0  0  0  0  0  0  0
   -0.2798    2.5438    0.0000 C   0  0  0  0  0  0  0  0  0  0  0  0
   -1.0995    2.5633    0.0000 C   0  0  0  0  0  0  0  0  0  0  0  0
    0.8913    0.6701    0.0000 O   0  0  0  0  0  0  0  0  0  0  0  0
    1.3598    2.0233    0.0000 C   0  0  1  0  0  0  0  0  0  0  0  0
    2.1339    1.7566    0.0000 N   0  0  0  0  0  0  0  0  0  0  0  0
    1.1971    2.8431    0.0000 C   0  0  0  0  0  0  0  0  0  0  0  0
    2.7520    2.3031    0.0000 C   0  0  2  0  0  0  0  0  0  0  0  0
    2.5893    3.1228    0.0000 C   0  0  0  0  0  0  0  0  0  0  0  0
    3.5262    2.0363    0.0000 C   0  0  0  0  0  0  0  0  0  0  0  0
    1.8022    3.4026    0.0000 O   0  0  0  0  0  0  0  0  0  0  0  0
    3.2074    3.6693    0.0000 O   0  0  0  0  0  0  0  0  0  0  0  0
    3.6758    1.2296    0.0000 C   0  0  0  0  0  0  0  0  0  0  0  0
    3.0448    4.4891    0.0000 C   0  0  0  0  0  0  0  0  0  0  0  0
    4.4501    0.9629    0.0000 C   0  0  0  0  0  0  0  0  0  0  0  0
    3.6628    5.0356    0.0000 C   0  0  0  0  0  0  0  0  0  0  0  0
    4.5997    0.1561    0.0000 C   0  0  0  0  0  0  0  0  0  0  0  0
    5.0681    1.5094    0.0000 C   0  0  0  0  0  0  0  0  0  0  0  0
    5.3739   -0.1106    0.0000 C   0  0  0  0  0  0  0  0  0  0  0  0
    5.8423    1.2426    0.0000 C   0  0  0  0  0  0  0  0  0  0  0  0
    5.9920    0.4359    0.0000 C   0  0  0  0  0  0  0  0  0  0  0  0
  1  2  2  0  0  0  0
  2  3  1  0  0  0  0
  4  2  1  6  0  0  0
  4  5  1  0  0  0  0
  4  6  1  0  0  0  0
  5  7  1  0  0  0  0
  5  8  1  0  0  0  0
  6  9  1  0  0  0  0
  7 10  2  0  0  0  0
  7 11  1  0  0  0  0
 11 12  1  6  0  0  0
 11 13  1  0  0  0  0
 14 12  1  6  0  0  0
 14 15  1  0  0  0  0
 14 16  1  0  0  0  0
 15 17  2  0  0  0  0
 15 18  1  0  0  0  0
 16 19  1  0  0  0  0
 18 20  1  0  0  0  0
 19 21  1  0  0  0  0
 20 22  1  0  0  0  0
 21 23  2  0  0  0  0
 21 24  1  0  0  0  0
 23 25  1  0  0  0  0
 24 26  2  0  0  0  0
 25 27  2  0  0  0  0
  8  9  1  0  0  0  0
 26 27  1  0  0  0  0
M  END

>  <name>
Enalapril

>  <ROTATABLE_BONDCOUNT>
10

>  <HBDScore>
0.5

>  <dipole>
5.00

>  <logD>
-1.06

>  <MPOScore>
5.184478571428572

>  <logDScore>
1.0

>  <MW>
376.453

>  <charge_dist(7.4)>
-0.99

>  <CNS>
FALSE

>  <ArRings>
1

>  <HBD>
2

>  <BALABAN_INDEX>
1.84

>  <bpKa>
5.2

>  <TPSAScore>
0.802

>  <MWScore>
0.8824785714285717

>  <bpKaScore>
1.0

>  <logPScore>
1.0

>  <MPO_area>
74.85

>  <TPSA>
95.94

>  <logP>
0.59

$$$$

  Mrv1722703221715202D          

 20 22  0  0  0  0            999 V2000
    0.0000    0.0000    0.0000 O   0  0  0  0  0  0  0  0  0  0  0  0
    0.6914    0.4501    0.0000 C   0  0  0  0  0  0  0  0  0  0  0  0
    0.6458    1.2850    0.0000 N   0  0  0  0  0  0  0  0  0  0  0  0
    1.4220    0.0718    0.0000 C   0  0  0  0  0  0  0  0  0  0  0  0
    1.3372    1.7351    0.0000 C   0  0  0  0  0  0  0  0  0  0  0  0
    1.6241   -0.7240    0.0000 N   0  0  0  0  0  0  0  0  0  0  0  0
    2.1133    0.5218    0.0000 C   0  0  0  0  0  0  0  0  0  0  0  0
    2.0677    1.3567    0.0000 N   0  0  0  0  0  0  0  0  0  0  0  0
    1.2915    2.5699    0.0000 N   0  0  0  0  0  0  0  0  0  0  0  0
    2.4460   -0.7697    0.0000 C   0  0  0  0  0  0  0  0  0  0  0  0
    2.7461    0.0000    0.0000 N   0  0  0  0  0  0  0  0  0  0  0  0
    3.5419    0.2153    0.0000 C   0  0  2  0  0  0  0  0  0  0  0  0
    3.8353    0.9915    0.0000 C   0  0  0  0  0  0  0  0  0  0  0  0
    4.1745   -0.3066    0.0000 C   0  0  0  0  0  0  0  0  0  0  0  0
    3.3853    1.6959    0.0000 C   0  0  0  0  0  0  0  0  0  0  0  0
    4.6572    0.9458    0.0000 C   0  0  1  0  0  0  0  0  0  0  0  0
    4.8660    0.1435    0.0000 C   0  0  1  0  0  0  0  0  0  0  0  0
    5.1791    1.5915    0.0000 C   0  0  0  0  0  0  0  0  0  0  0  0
    5.6291   -0.1500    0.0000 O   0  0  0  0  0  0  0  0  0  0  0  0
    5.9879    1.4611    0.0000 O   0  0  0  0  0  0  0  0  0  0  0  0
  1  2  2  0  0  0  0
  2  3  1  0  0  0  0
  2  4  1  0  0  0  0
  3  5  2  0  0  0  0
  4  6  1  0  0  0  0
  4  7  2  0  0  0  0
  5  8  1  0  0  0  0
  5  9  1  0  0  0  0
  6 10  2  0  0  0  0
  7 11  1  0  0  0  0
 12 11  1  6  0  0  0
 12 13  1  0  0  0  0
 12 14  1  0  0  0  0
 13 15  2  0  0  0  0
 13 16  1  0  0  0  0
 14 17  1  0  0  0  0
 16 18  1  6  0  0  0
 17 19  1  1  0  0  0
 18 20  1  0  0  0  0
  7  8  1  0  0  0  0
 10 11  1  0  0  0  0
 16 17  1  0  0  0  0
M  END

>  <name>
Entecavir

>  <ROTATABLE_BONDCOUNT>
2

>  <HBDScore>
0.0

>  <dipole>
11.86

>  <logD>
-1.44

>  <MPOScore>
4.0

>  <logDScore>
1.0

>  <MW>
277.284

>  <charge_dist(7.4)>
-0.00

>  <CNS>
FALSE

>  <ArRings>
2

>  <HBD>
4

>  <BALABAN_INDEX>
1.59

>  <bpKa>
2.77

>  <TPSAScore>
0.0

>  <MWScore>
1.0

>  <bpKaScore>
1.0

>  <logPScore>
1.0

>  <MPO_area>
50.0

>  <TPSA>
125.76

>  <logP>
-1.44

$$$$

  Mrv1722703221715202D          

 30 35  0  0  0  0            999 V2000
    0.0000    0.0000    0.0000 O   0  0  0  0  0  0  0  0  0  0  0  0
   -0.8179   -0.1095    0.0000 C   0  0  0  0  0  0  0  0  0  0  0  0
   -1.1271   -0.8630    0.0000 C   0  0  0  0  0  0  0  0  0  0  0  0
   -1.3332    0.5410    0.0000 C   0  0  0  0  0  0  0  0  0  0  0  0
   -1.9450   -0.9725    0.0000 C   0  0  0  0  0  0  0  0  0  0  0  0
   -2.1511    0.4315    0.0000 C   0  0  0  0  0  0  0  0  0  0  0  0
   -2.4602   -0.3220    0.0000 C   0  0  1  0  0  0  0  0  0  0  0  0
   -2.2542   -1.7260    0.0000 C   0  0  0  0  0  0  0  0  0  0  0  0
   -3.2782   -0.4315    0.0000 C   0  0  1  0  0  0  0  0  0  0  0  0
   -2.6470    0.0837    0.0000 C   0  0  0  0  0  0  0  0  0  0  0  0
   -3.0721   -1.8356    0.0000 C   0  0  1  0  0  0  0  0  0  0  0  0
   -2.9819    0.3349    0.0000 O   0  0  0  0  0  0  0  0  0  0  0  0
   -3.5873   -1.1851    0.0000 C   0  0  2  0  0  0  0  0  0  0  0  0
   -3.7934    0.2190    0.0000 C   0  0  1  0  0  0  0  0  0  0  0  0
   -3.3813   -2.5891    0.0000 C   0  0  0  0  0  0  0  0  0  0  0  0
   -4.4053   -1.2945    0.0000 C   0  0  2  0  0  0  0  0  0  0  0  0
   -4.6113    0.1095    0.0000 C   0  0  0  0  0  0  0  0  0  0  0  0
   -4.1992   -2.6986    0.0000 O   0  0  0  0  0  0  0  0  0  0  0  0
   -2.8789   -3.2267    0.0000 O   0  0  0  0  0  0  0  0  0  0  0  0
   -4.9205   -0.6441    0.0000 C   0  0  1  0  0  0  0  0  0  0  0  0
   -4.8690   -1.9708    0.0000 C   0  0  0  0  0  0  0  0  0  0  0  0
   -3.1880   -3.9802    0.0000 C   0  0  0  0  0  0  0  0  0  0  0  0
   -5.6934   -0.9210    0.0000 C   0  0  1  0  0  0  0  0  0  0  0  0
   -5.3391    0.0708    0.0000 C   0  0  0  0  0  0  0  0  0  0  0  0
   -5.6612   -1.7453    0.0000 C   0  0  0  0  0  0  0  0  0  0  0  0
   -5.7320   -0.0966    0.0000 O   0  0  0  0  0  0  0  0  0  0  0  0
   -6.4662   -1.1979    0.0000 C   0  0  0  0  0  0  0  0  0  0  0  0
   -6.5242    0.1288    0.0000 C   0  0  0  0  0  0  0  0  0  0  0  0
   -6.9815   -0.5475    0.0000 C   0  0  0  0  0  0  0  0  0  0  0  0
   -6.8140    0.9017    0.0000 O   0  0  0  0  0  0  0  0  0  0  0  0
  1  2  2  0  0  0  0
  2  3  1  0  0  0  0
  2  4  1  0  0  0  0
  3  5  2  0  0  0  0
  4  6  1  0  0  0  0
  5  7  1  0  0  0  0
  5  8  1  0  0  0  0
  7  9  1  0  0  0  0
  7 10  1  1  0  0  0
  8 11  1  0  0  0  0
  9 12  1  6  0  0  0
  9 13  1  0  0  0  0
  9 14  1  0  0  0  0
 11 15  1  6  0  0  0
 13 16  1  6  0  0  0
 14 17  1  0  0  0  0
 15 18  2  0  0  0  0
 15 19  1  0  0  0  0
 16 20  1  0  0  0  0
 16 21  1  1  0  0  0
 19 22  1  0  0  0  0
 20 23  1  0  0  0  0
 20 24  1  1  0  0  0
 21 25  1  0  0  0  0
 23 26  1  0  0  0  0
 23 27  1  6  0  0  0
 26 28  1  0  0  0  0
 27 29  1  0  0  0  0
 28 30  2  0  0  0  0
  6  7  1  0  0  0  0
 11 13  1  0  0  0  0
 14 12  1  6  0  0  0
 17 20  1  0  0  0  0
 23 25  1  0  0  0  0
 28 29  1  0  0  0  0
M  END

>  <name>
Eplerenone

>  <ROTATABLE_BONDCOUNT>
2

>  <HBDScore>
1.0

>  <dipole>
4.37

>  <logD>
2.33

>  <MPOScore>
5.445728571428571

>  <logDScore>
0.835

>  <MW>
414.498

>  <charge_dist(7.4)>
-0.00

>  <CNS>
FALSE

>  <ArRings>
0

>  <HBD>
0

>  <BALABAN_INDEX>
1.44

>  <bpKa>
-4.18

>  <TPSAScore>
1.0

>  <MWScore>
0.6107285714285715

>  <bpKaScore>
1.0

>  <logPScore>
1.0

>  <MPO_area>
82.59

>  <TPSA>
82.20

>  <logP>
2.33

$$$$

  Mrv1722703221715202D          

 30 32  0  0  0  0            999 V2000
    0.0000    0.0000    0.0000 S   0  0  0  0  0  0  0  0  0  0  0  0
    0.5797    0.5928    0.0000 C   0  0  0  0  0  0  0  0  0  0  0  0
   -0.7426    0.3843    0.0000 C   0  0  0  0  0  0  0  0  0  0  0  0
    0.2020    1.3354    0.0000 C   0  0  0  0  0  0  0  0  0  0  0  0
    1.3940    0.4690    0.0000 C   0  0  0  0  0  0  0  0  0  0  0  0
   -0.6188    1.2116    0.0000 C   0  0  0  0  0  0  0  0  0  0  0  0
    1.6806   -0.2997    0.0000 C   0  0  0  0  0  0  0  0  0  0  0  0
    1.1530   -0.9380    0.0000 C   0  0  0  0  0  0  0  0  0  0  0  0
    2.4949   -0.4234    0.0000 C   0  0  0  0  0  0  0  0  0  0  0  0
    1.4396   -1.7067    0.0000 O   0  0  0  0  0  0  0  0  0  0  0  0
    0.3257   -0.8012    0.0000 O   0  0  0  0  0  0  0  0  0  0  0  0
    3.0095    0.2280    0.0000 C   0  0  0  0  0  0  0  0  0  0  0  0
    3.8303    0.1889    0.0000 N   0  0  0  0  0  0  0  0  0  0  0  0
    2.7880    1.0357    0.0000 C   0  0  0  0  0  0  0  0  0  0  0  0
    4.1234    0.9706    0.0000 C   0  0  0  0  0  0  0  0  0  0  0  0
    4.2732   -0.5016    0.0000 C   0  0  0  0  0  0  0  0  0  0  0  0
    3.4785    1.4917    0.0000 N   0  0  0  0  0  0  0  0  0  0  0  0
    4.9181    1.1921    0.0000 C   0  0  0  0  0  0  0  0  0  0  0  0
    5.0940   -0.4560    0.0000 C   0  0  0  0  0  0  0  0  0  0  0  0
    5.1266    1.9998    0.0000 C   0  0  0  0  0  0  0  0  0  0  0  0
    5.5369   -1.1465    0.0000 C   0  0  0  0  0  0  0  0  0  0  0  0
    5.4653    0.2866    0.0000 C   0  0  0  0  0  0  0  0  0  0  0  0
    5.9213    2.2213    0.0000 C   0  0  0  0  0  0  0  0  0  0  0  0
    6.3578   -1.1009    0.0000 C   0  0  0  0  0  0  0  0  0  0  0  0
    6.2861    0.3322    0.0000 C   0  0  0  0  0  0  0  0  0  0  0  0
    6.1298    3.0290    0.0000 C   0  0  0  0  0  0  0  0  0  0  0  0
    6.7290   -0.3583    0.0000 C   0  0  0  0  0  0  0  0  0  0  0  0
    7.5498   -0.3127    0.0000 C   0  0  0  0  0  0  0  0  0  0  0  0
    7.9211    0.4299    0.0000 O   0  0  0  0  0  0  0  0  0  0  0  0
    7.9927   -1.0032    0.0000 O   0  0  0  0  0  0  0  0  0  0  0  0
  1  2  1  0  0  0  0
  1  3  1  0  0  0  0
  2  4  2  0  0  0  0
  2  5  1  0  0  0  0
  3  6  2  0  0  0  0
  5  7  1  0  0  0  0
  7  8  1  0  0  0  0
  7  9  2  0  0  0  0
  8 10  2  0  0  0  0
  8 11  1  0  0  0  0
  9 12  1  0  0  0  0
 12 13  1  0  0  0  0
 12 14  2  0  0  0  0
 13 15  1  0  0  0  0
 13 16  1  0  0  0  0
 14 17  1  0  0  0  0
 15 18  1  0  0  0  0
 16 19  1  0  0  0  0
 18 20  1  0  0  0  0
 19 21  2  0  0  0  0
 19 22  1  0  0  0  0
 20 23  1  0  0  0  0
 21 24  1  0  0  0  0
 22 25  2  0  0  0  0
 23 26  1  0  0  0  0
 24 27  2  0  0  0  0
 27 28  1  0  0  0  0
 28 29  2  0  0  0  0
 28 30  1  0  0  0  0
  4  6  1  0  0  0  0
 15 17  2  0  0  0  0
 25 27  1  0  0  0  0
M  END

>  <name>
Eprosartan

>  <ROTATABLE_BONDCOUNT>
10

>  <HBDScore>
0.5

>  <dipole>
6.64

>  <logD>
0.09

>  <MPOScore>
4.563476190476191

>  <logDScore>
1.0

>  <MW>
424.52

>  <charge_dist(7.4)>
-1.84

>  <CNS>
FALSE

>  <ArRings>
3

>  <HBD>
2

>  <BALABAN_INDEX>
1.59

>  <bpKa>
6.67

>  <TPSAScore>
0.9193333333333333

>  <MWScore>
0.5391428571428574

>  <bpKaScore>
1.0

>  <logPScore>
0.605

>  <MPO_area>
59.52

>  <TPSA>
92.42

>  <logP>
3.79

$$$$

  Mrv1722703221715202D          

 20 23  0  0  0  0            999 V2000
    0.0000    0.0000    0.0000 O   0  0  0  0  0  0  0  0  0  0  0  0
   -0.8250   -0.0064    0.0000 C   0  0  0  0  0  0  0  0  0  0  0  0
   -1.2504    0.7025    0.0000 C   0  0  0  0  0  0  0  0  0  0  0  0
   -1.2310   -0.7154    0.0000 C   0  0  0  0  0  0  0  0  0  0  0  0
   -2.0754    0.6961    0.0000 C   0  0  0  0  0  0  0  0  0  0  0  0
   -2.0560   -0.7219    0.0000 C   0  0  0  0  0  0  0  0  0  0  0  0
   -2.4814   -0.0129    0.0000 C   0  0  0  0  0  0  0  0  0  0  0  0
   -2.5007    1.4051    0.0000 C   0  0  0  0  0  0  0  0  0  0  0  0
   -3.3064   -0.0193    0.0000 C   0  0  2  0  0  0  0  0  0  0  0  0
   -3.3257    1.3986    0.0000 C   0  0  0  0  0  0  0  0  0  0  0  0
   -3.7317    0.6896    0.0000 C   0  0  1  0  0  0  0  0  0  0  0  0
   -3.7124   -0.7283    0.0000 C   0  0  0  0  0  0  0  0  0  0  0  0
   -4.5567    0.6832    0.0000 C   0  0  1  0  0  0  0  0  0  0  0  0
   -4.5374   -0.7348    0.0000 C   0  0  0  0  0  0  0  0  0  0  0  0
   -4.9628   -0.0258    0.0000 C   0  0  2  0  0  0  0  0  0  0  0  0
   -5.1239    1.2890    0.0000 C   0  0  0  0  0  0  0  0  0  0  0  0
   -5.7749    0.1354    0.0000 C   0  0  2  0  0  0  0  0  0  0  0  0
   -5.4397   -0.6896    0.0000 C   0  0  0  0  0  0  0  0  0  0  0  0
   -5.8716    0.9474    0.0000 C   0  0  0  0  0  0  0  0  0  0  0  0
   -6.3807   -0.4189    0.0000 O   0  0  0  0  0  0  0  0  0  0  0  0
  1  2  1  0  0  0  0
  2  3  2  0  0  0  0
  2  4  1  0  0  0  0
  3  5  1  0  0  0  0
  4  6  2  0  0  0  0
  5  7  2  0  0  0  0
  5  8  1  0  0  0  0
  7  9  1  0  0  0  0
  8 10  1  0  0  0  0
  9 11  1  0  0  0  0
  9 12  1  1  0  0  0
 11 13  1  0  0  0  0
 12 14  1  0  0  0  0
 13 15  1  0  0  0  0
 13 16  1  1  0  0  0
 15 17  1  0  0  0  0
 15 18  1  1  0  0  0
 16 19  1  0  0  0  0
 17 20  1  1  0  0  0
  6  7  1  0  0  0  0
 11 10  1  6  0  0  0
 14 15  1  0  0  0  0
 17 19  1  0  0  0  0
M  END

>  <name>
Estradiol

>  <ROTATABLE_BONDCOUNT>
0

>  <HBDScore>
0.5

>  <dipole>
3.30

>  <logD>
3.74

>  <MPOScore>
4.255

>  <logDScore>
0.1299999999999999

>  <MW>
272.388

>  <charge_dist(7.4)>
-0.00

>  <CNS>
FALSE

>  <ArRings>
1

>  <HBD>
2

>  <BALABAN_INDEX>
1.36

>  <bpKa>
-0.88

>  <TPSAScore>
1.0

>  <MWScore>
1.0

>  <bpKaScore>
1.0

>  <logPScore>
0.625

>  <MPO_area>
52.21

>  <TPSA>
40.46

>  <logP>
3.75

$$$$

  Mrv1722703221715202D          

 29 32  0  0  0  0            999 V2000
    0.0000    0.0000    0.0000 Cl  0  0  0  0  0  0  0  0  0  0  0  0
    0.4634   -0.6788    0.0000 C   0  0  0  0  0  0  0  0  0  0  0  0
    1.2858   -0.6135    0.0000 C   0  0  0  0  0  0  0  0  0  0  0  0
    1.7492   -1.2923    0.0000 N   0  0  0  0  0  0  0  0  0  0  0  0
    2.5716   -1.2271    0.0000 C   0  0  0  0  0  0  0  0  0  0  0  0
    1.3837   -2.0364    0.0000 C   0  0  0  0  0  0  0  0  0  0  0  0
    2.9240   -0.4699    0.0000 O   0  0  0  0  0  0  0  0  0  0  0  0
    3.0350   -1.9058    0.0000 O   0  0  0  0  0  0  0  0  0  0  0  0
    0.5483   -2.0886    0.0000 C   0  0  0  0  0  0  0  0  0  0  0  0
    3.8573   -1.8405    0.0000 C   0  0  0  0  0  0  0  0  0  0  0  0
    0.1828   -2.8327    0.0000 Cl  0  0  0  0  0  0  0  0  0  0  0  0
    4.2098   -1.0835    0.0000 C   0  0  0  0  0  0  0  0  0  0  0  0
    4.3208   -2.5194    0.0000 C   0  0  0  0  0  0  0  0  0  0  0  0
    5.0322   -1.0182    0.0000 C   0  0  0  0  0  0  0  0  0  0  0  0
    5.1431   -2.4541    0.0000 C   0  0  0  0  0  0  0  0  0  0  0  0
    5.4956   -1.6970    0.0000 C   0  0  0  0  0  0  0  0  0  0  0  0
    5.3846   -0.2611    0.0000 C   0  0  0  0  0  0  0  0  0  0  0  0
    6.3180   -1.6317    0.0000 C   0  0  2  0  0  0  0  0  0  0  0  0
    6.2070   -0.1958    0.0000 C   0  0  0  0  0  0  0  0  0  0  0  0
    6.6704   -0.8746    0.0000 C   0  0  1  0  0  0  0  0  0  0  0  0
    6.7813   -2.3105    0.0000 C   0  0  0  0  0  0  0  0  0  0  0  0
    7.4928   -0.8093    0.0000 C   0  0  1  0  0  0  0  0  0  0  0  0
    7.6038   -2.2452    0.0000 C   0  0  0  0  0  0  0  0  0  0  0  0
    7.9562   -1.4881    0.0000 C   0  0  2  0  0  0  0  0  0  0  0  0
    7.9953   -0.1436    0.0000 C   0  0  0  0  0  0  0  0  0  0  0  0
    8.7459   -1.2466    0.0000 C   0  0  2  0  0  0  0  0  0  0  0  0
    8.4848   -2.1147    0.0000 C   0  0  0  0  0  0  0  0  0  0  0  0
    8.7721   -0.4177    0.0000 C   0  0  0  0  0  0  0  0  0  0  0  0
    9.3986   -1.7492    0.0000 O   0  0  0  0  0  0  0  0  0  0  0  0
  1  2  1  0  0  0  0
  2  3  1  0  0  0  0
  3  4  1  0  0  0  0
  4  5  1  0  0  0  0
  4  6  1  0  0  0  0
  5  7  2  0  0  0  0
  5  8  1  0  0  0  0
  6  9  1  0  0  0  0
  8 10  1  0  0  0  0
  9 11  1  0  0  0  0
 10 12  2  0  0  0  0
 10 13  1  0  0  0  0
 12 14  1  0  0  0  0
 13 15  2  0  0  0  0
 14 16  2  0  0  0  0
 14 17  1  0  0  0  0
 16 18  1  0  0  0  0
 17 19  1  0  0  0  0
 18 20  1  0  0  0  0
 18 21  1  6  0  0  0
 20 22  1  0  0  0  0
 21 23  1  0  0  0  0
 22 24  1  0  0  0  0
 22 25  1  6  0  0  0
 24 26  1  0  0  0  0
 24 27  1  6  0  0  0
 25 28  1  0  0  0  0
 26 29  1  6  0  0  0
 15 16  1  0  0  0  0
 20 19  1  1  0  0  0
 23 24  1  0  0  0  0
 26 28  1  0  0  0  0
M  END

>  <name>
Estramustine

>  <ROTATABLE_BONDCOUNT>
6

>  <HBDScore>
0.8333333333333334

>  <dipole>
3.24

>  <logD>
5.10

>  <MPOScore>
3.2589761904761905

>  <logDScore>
0.0

>  <MW>
440.41

>  <charge_dist(7.4)>
0.00

>  <CNS>
FALSE

>  <ArRings>
1

>  <HBD>
1

>  <BALABAN_INDEX>
1.26

>  <bpKa>
-0.88

>  <TPSAScore>
1.0

>  <MWScore>
0.425642857142857

>  <bpKaScore>
1.0

>  <logPScore>
0.0

>  <MPO_area>
36.47

>  <TPSA>
49.77

>  <logP>
5.10

$$$$

  Mrv1722703221715202D          

 19 19  0  0  0  0            999 V2000
    0.0000    0.0000    0.0000 Cl  0  0  0  0  0  0  0  0  0  0  0  0
   -0.5865    0.5802    0.0000 C   0  0  0  0  0  0  0  0  0  0  0  0
   -1.3850    0.3681    0.0000 C   0  0  0  0  0  0  0  0  0  0  0  0
   -0.3868    1.3788    0.0000 C   0  0  0  0  0  0  0  0  0  0  0  0
   -1.5971   -0.4180    0.0000 Cl  0  0  0  0  0  0  0  0  0  0  0  0
   -1.9715    0.9483    0.0000 C   0  0  0  0  0  0  0  0  0  0  0  0
    0.3993    1.6034    0.0000 O   0  0  0  0  0  0  0  0  0  0  0  0
   -0.9733    1.9590    0.0000 C   0  0  0  0  0  0  0  0  0  0  0  0
   -2.7700    0.7362    0.0000 C   0  0  0  0  0  0  0  0  0  0  0  0
   -1.7719    1.7469    0.0000 C   0  0  0  0  0  0  0  0  0  0  0  0
    0.9733    1.0357    0.0000 C   0  0  0  0  0  0  0  0  0  0  0  0
   -2.9822   -0.0499    0.0000 O   0  0  0  0  0  0  0  0  0  0  0  0
   -3.3565    1.3164    0.0000 C   0  0  0  0  0  0  0  0  0  0  0  0
    1.7594    1.2603    0.0000 C   0  0  0  0  0  0  0  0  0  0  0  0
   -3.1569    2.1150    0.0000 C   0  0  0  0  0  0  0  0  0  0  0  0
   -4.1551    1.1043    0.0000 C   0  0  0  0  0  0  0  0  0  0  0  0
    1.9590    2.0588    0.0000 O   0  0  0  0  0  0  0  0  0  0  0  0
    2.3333    0.6925    0.0000 O   0  0  0  0  0  0  0  0  0  0  0  0
   -4.7415    1.6845    0.0000 C   0  0  0  0  0  0  0  0  0  0  0  0
  1  2  1  0  0  0  0
  2  3  2  0  0  0  0
  2  4  1  0  0  0  0
  3  5  1  0  0  0  0
  3  6  1  0  0  0  0
  4  7  1  0  0  0  0
  4  8  2  0  0  0  0
  6  9  1  0  0  0  0
  6 10  2  0  0  0  0
  7 11  1  0  0  0  0
  9 12  2  0  0  0  0
  9 13  1  0  0  0  0
 11 14  1  0  0  0  0
 13 15  2  0  0  0  0
 13 16  1  0  0  0  0
 14 17  2  0  0  0  0
 14 18  1  0  0  0  0
 16 19  1  0  0  0  0
  8 10  1  0  0  0  0
M  END

>  <name>
Ethacrynic_acid

>  <ROTATABLE_BONDCOUNT>
6

>  <HBDScore>
0.8333333333333334

>  <dipole>
8.82

>  <logD>
0.16

>  <MPOScore>
5.503333333333333

>  <logDScore>
1.0

>  <MW>
303.14

>  <charge_dist(7.4)>
-1.00

>  <CNS>
FALSE

>  <ArRings>
1

>  <HBD>
1

>  <BALABAN_INDEX>
2.42

>  <bpKa>
-4.96

>  <TPSAScore>
1.0

>  <MWScore>
1.0

>  <bpKaScore>
1.0

>  <logPScore>
0.6699999999999999

>  <MPO_area>
84.36

>  <TPSA>
63.60

>  <logP>
3.66

$$$$

  Mrv1722703221715202D          

 14 13  0  0  0  0            999 V2000
    0.0000    0.0000    0.0000 O   0  0  0  0  0  0  0  0  0  0  0  0
    0.6382    0.5106    0.0000 C   0  0  0  0  0  0  0  0  0  0  0  0
    0.5234    1.3276    0.0000 C   0  0  1  0  0  0  0  0  0  0  0  0
   -0.2425    1.6403    0.0000 N   0  0  0  0  0  0  0  0  0  0  0  0
    1.1616    1.8381    0.0000 C   0  0  0  0  0  0  0  0  0  0  0  0
   -0.8935    1.1424    0.0000 C   0  0  0  0  0  0  0  0  0  0  0  0
    1.0467    2.6551    0.0000 C   0  0  0  0  0  0  0  0  0  0  0  0
   -1.6595    1.4552    0.0000 C   0  0  0  0  0  0  0  0  0  0  0  0
   -2.3105    0.9574    0.0000 N   0  0  0  0  0  0  0  0  0  0  0  0
   -3.0763    1.2701    0.0000 C   0  0  2  0  0  0  0  0  0  0  0  0
   -3.1912    2.0870    0.0000 C   0  0  0  0  0  0  0  0  0  0  0  0
   -3.7274    0.7723    0.0000 C   0  0  0  0  0  0  0  0  0  0  0  0
   -3.9571    2.3998    0.0000 O   0  0  0  0  0  0  0  0  0  0  0  0
   -4.4933    1.0850    0.0000 C   0  0  0  0  0  0  0  0  0  0  0  0
  1  2  1  0  0  0  0
  2  3  1  0  0  0  0
  3  4  1  1  0  0  0
  3  5  1  0  0  0  0
  4  6  1  0  0  0  0
  5  7  1  0  0  0  0
  6  8  1  0  0  0  0
  8  9  1  0  0  0  0
 10  9  1  1  0  0  0
 10 11  1  0  0  0  0
 10 12  1  0  0  0  0
 11 13  1  0  0  0  0
 12 14  1  0  0  0  0
M  END

>  <name>
Ethambutol

>  <ROTATABLE_BONDCOUNT>
9

>  <HBDScore>
0.0

>  <dipole>
3.52

>  <logD>
-2.25

>  <MPOScore>
4.225

>  <logDScore>
1.0

>  <MW>
204.314

>  <charge_dist(7.4)>
1.15

>  <CNS>
FALSE

>  <ArRings>
0

>  <HBD>
4

>  <BALABAN_INDEX>
3.35

>  <bpKa>
9.55

>  <TPSAScore>
1.0

>  <MWScore>
1.0

>  <bpKaScore>
0.22499999999999964

>  <logPScore>
1.0

>  <MPO_area>
53.75

>  <TPSA>
64.52

>  <logP>
-0.06

$$$$

  Mrv1722703221715202D          

 16 17  0  0  0  0            999 V2000
    0.0000    0.0000    0.0000 S   0  0  0  0  0  0  0  0  0  0  0  0
    0.0908    0.8307    0.0000 O   0  0  0  0  0  0  0  0  0  0  0  0
   -0.1038   -0.8177    0.0000 O   0  0  0  0  0  0  0  0  0  0  0  0
   -0.8307    0.1038    0.0000 N   0  0  0  0  0  0  0  0  0  0  0  0
    0.8177   -0.0908    0.0000 C   0  0  0  0  0  0  0  0  0  0  0  0
    1.3694    0.5257    0.0000 S   0  0  0  0  0  0  0  0  0  0  0  0
    1.2201   -0.8048    0.0000 N   0  0  0  0  0  0  0  0  0  0  0  0
    2.1158    0.1882    0.0000 C   0  0  0  0  0  0  0  0  0  0  0  0
    2.0249   -0.6361    0.0000 C   0  0  0  0  0  0  0  0  0  0  0  0
    2.8686    0.5257    0.0000 C   0  0  0  0  0  0  0  0  0  0  0  0
    2.6869   -1.1228    0.0000 C   0  0  0  0  0  0  0  0  0  0  0  0
    3.5306    0.0390    0.0000 C   0  0  0  0  0  0  0  0  0  0  0  0
    3.4397   -0.7853    0.0000 C   0  0  0  0  0  0  0  0  0  0  0  0
    4.2834    0.3764    0.0000 O   0  0  0  0  0  0  0  0  0  0  0  0
    4.9454   -0.1103    0.0000 C   0  0  0  0  0  0  0  0  0  0  0  0
    5.6983    0.2271    0.0000 C   0  0  0  0  0  0  0  0  0  0  0  0
  1  2  2  0  0  0  0
  1  3  2  0  0  0  0
  1  4  1  0  0  0  0
  1  5  1  0  0  0  0
  5  6  1  0  0  0  0
  5  7  2  0  0  0  0
  6  8  1  0  0  0  0
  7  9  1  0  0  0  0
  8 10  2  0  0  0  0
  9 11  2  0  0  0  0
 10 12  1  0  0  0  0
 11 13  1  0  0  0  0
 12 14  1  0  0  0  0
 14 15  1  0  0  0  0
 15 16  1  0  0  0  0
  8  9  1  0  0  0  0
 12 13  2  0  0  0  0
M  END

>  <name>
Ethoxzolamide

>  <ROTATABLE_BONDCOUNT>
3

>  <HBDScore>
0.8333333333333334

>  <dipole>
12.16

>  <logD>
1.39

>  <MPOScore>
5.833333333333333

>  <logDScore>
1.0

>  <MW>
258.31

>  <charge_dist(7.4)>
-0.44

>  <CNS>
FALSE

>  <ArRings>
2

>  <HBD>
1

>  <BALABAN_INDEX>
1.69

>  <bpKa>
-1.93

>  <TPSAScore>
1.0

>  <MWScore>
1.0

>  <bpKaScore>
1.0

>  <logPScore>
1.0

>  <MPO_area>
94.44

>  <TPSA>
82.28

>  <logP>
1.60

$$$$

  Mrv1722703221715202D          

 21 24  0  0  0  0            999 V2000
    0.0000    0.0000    0.0000 O   0  0  0  0  0  0  0  0  0  0  0  0
    0.2157   -0.7910    0.0000 C   0  0  2  0  0  0  0  0  0  0  0  0
    1.0133   -0.5753    0.0000 C   0  0  2  0  0  0  0  0  0  0  0  0
    0.1635   -1.6147    0.0000 C   0  0  0  0  0  0  0  0  0  0  0  0
   -0.6210   -0.8237    0.0000 C   0  0  0  0  0  0  0  0  0  0  0  0
    1.4578   -1.2682    0.0000 C   0  0  1  0  0  0  0  0  0  0  0  0
    1.3859    0.1700    0.0000 C   0  0  0  0  0  0  0  0  0  0  0  0
    0.5688    0.1373    0.0000 C   0  0  0  0  0  0  0  0  0  0  0  0
    0.9283   -1.9088    0.0000 C   0  0  0  0  0  0  0  0  0  0  0  0
   -1.0787   -0.1177    0.0000 C   0  0  0  0  0  0  0  0  0  0  0  0
    2.2815   -1.2225    0.0000 C   0  0  1  0  0  0  0  0  0  0  0  0
    2.2096    0.2157    0.0000 C   0  0  0  0  0  0  0  0  0  0  0  0
    2.6541   -0.4772    0.0000 C   0  0  2  0  0  0  0  0  0  0  0  0
    2.7260   -1.9154    0.0000 C   0  0  0  0  0  0  0  0  0  0  0  0
    3.4778   -0.4315    0.0000 C   0  0  2  0  0  0  0  0  0  0  0  0
    3.5497   -1.8696    0.0000 C   0  0  0  0  0  0  0  0  0  0  0  0
    3.9223   -1.1244    0.0000 C   0  0  0  0  0  0  0  0  0  0  0  0
    3.8504    0.3138    0.0000 C   0  0  0  0  0  0  0  0  0  0  0  0
    4.7460   -1.0787    0.0000 C   0  0  0  0  0  0  0  0  0  0  0  0
    4.6741    0.3595    0.0000 C   0  0  0  0  0  0  0  0  0  0  0  0
    5.1186   -0.3334    0.0000 C   0  0  0  0  0  0  0  0  0  0  0  0
  2  1  1  6  0  0  0
  2  3  1  0  0  0  0
  2  4  1  0  0  0  0
  2  5  1  0  0  0  0
  3  6  1  0  0  0  0
  3  7  1  0  0  0  0
  3  8  1  6  0  0  0
  4  9  1  0  0  0  0
  5 10  1  0  0  0  0
  6 11  1  0  0  0  0
  7 12  1  0  0  0  0
 11 13  1  0  0  0  0
 11 14  1  1  0  0  0
 13 15  1  0  0  0  0
 14 16  1  0  0  0  0
 15 17  1  0  0  0  0
 15 18  1  1  0  0  0
 17 19  2  0  0  0  0
 18 20  1  0  0  0  0
 19 21  1  0  0  0  0
  6  9  1  6  0  0  0
 13 12  1  6  0  0  0
 16 17  1  0  0  0  0
 20 21  1  0  0  0  0
M  END

>  <name>
Ethylestrenol

>  <ROTATABLE_BONDCOUNT>
1

>  <HBDScore>
0.8333333333333334

>  <dipole>
1.65

>  <logD>
4.69

>  <MPOScore>
2.999833333333333

>  <logDScore>
0.0

>  <MW>
288.475

>  <charge_dist(7.4)>
0.00

>  <CNS>
FALSE

>  <ArRings>
0

>  <HBD>
1

>  <BALABAN_INDEX>
1.34

>  <bpKa>
-0.27

>  <TPSAScore>
0.011500000000000022

>  <MWScore>
1.0

>  <bpKaScore>
1.0

>  <logPScore>
0.1549999999999998

>  <MPO_area>
32.74

>  <TPSA>
20.23

>  <logP>
4.69

$$$$

  Mrv1722703221715202D          

 22 25  0  0  0  0            999 V2000
    0.0000    0.0000    0.0000 O   0  0  0  0  0  0  0  0  0  0  0  0
    0.1768   -0.8054    0.0000 C   0  0  2  0  0  0  0  0  0  0  0  0
   -0.6613   -0.7923    0.0000 C   0  0  0  0  0  0  0  0  0  0  0  0
    0.9822   -0.6286    0.0000 C   0  0  2  0  0  0  0  0  0  0  0  0
    0.0786   -1.6238    0.0000 C   0  0  0  0  0  0  0  0  0  0  0  0
   -1.4995   -0.7792    0.0000 C   0  0  0  0  0  0  0  0  0  0  0  0
    1.3881   -1.3423    0.0000 C   0  0  1  0  0  0  0  0  0  0  0  0
    1.3947    0.0982    0.0000 C   0  0  0  0  0  0  0  0  0  0  0  0
    0.5762    0.1048    0.0000 C   0  0  0  0  0  0  0  0  0  0  0  0
    0.8316   -1.9578    0.0000 C   0  0  0  0  0  0  0  0  0  0  0  0
    2.2132   -1.3423    0.0000 C   0  0  1  0  0  0  0  0  0  0  0  0
    2.2197    0.0982    0.0000 C   0  0  0  0  0  0  0  0  0  0  0  0
    2.6257   -0.6155    0.0000 C   0  0  2  0  0  0  0  0  0  0  0  0
    2.6191   -2.0560    0.0000 C   0  0  0  0  0  0  0  0  0  0  0  0
    3.4507   -0.6155    0.0000 C   0  0  2  0  0  0  0  0  0  0  0  0
    3.4441   -2.0560    0.0000 C   0  0  0  0  0  0  0  0  0  0  0  0
    3.8567   -1.3292    0.0000 C   0  0  0  0  0  0  0  0  0  0  0  0
    3.8632    0.1113    0.0000 C   0  0  0  0  0  0  0  0  0  0  0  0
    4.6817   -1.3292    0.0000 C   0  0  0  0  0  0  0  0  0  0  0  0
    4.6882    0.1113    0.0000 C   0  0  0  0  0  0  0  0  0  0  0  0
    5.0942   -0.6024    0.0000 C   0  0  2  0  0  0  0  0  0  0  0  0
    5.9192   -0.6024    0.0000 O   0  0  0  0  0  0  0  0  0  0  0  0
  2  1  1  6  0  0  0
  2  3  1  0  0  0  0
  2  4  1  0  0  0  0
  2  5  1  0  0  0  0
  3  6  3  0  0  0  0
  4  7  1  0  0  0  0
  4  8  1  0  0  0  0
  4  9  1  6  0  0  0
  5 10  1  0  0  0  0
  7 11  1  0  0  0  0
  8 12  1  0  0  0  0
 11 13  1  0  0  0  0
 11 14  1  1  0  0  0
 13 15  1  0  0  0  0
 14 16  1  0  0  0  0
 15 17  1  0  0  0  0
 15 18  1  1  0  0  0
 17 19  2  0  0  0  0
 18 20  1  0  0  0  0
 19 21  1  0  0  0  0
 21 22  1  6  0  0  0
  7 10  1  6  0  0  0
 13 12  1  6  0  0  0
 16 17  1  0  0  0  0
 20 21  1  0  0  0  0
M  END

>  <name>
Ethynodiol_diacetate

>  <ROTATABLE_BONDCOUNT>
0

>  <HBDScore>
0.5

>  <dipole>
1.80

>  <logD>
2.81

>  <MPOScore>
5.095

>  <logDScore>
0.595

>  <MW>
300.442

>  <charge_dist(7.4)>
0.00

>  <CNS>
FALSE

>  <ArRings>
0

>  <HBD>
2

>  <BALABAN_INDEX>
1.58

>  <bpKa>
-1.38

>  <TPSAScore>
1.0

>  <MWScore>
1.0

>  <bpKaScore>
1.0

>  <logPScore>
1.0

>  <MPO_area>
73.21

>  <TPSA>
40.46

>  <logP>
2.81

$$$$

  Mrv1722703221715202D          

 21 23  0  0  0  0            999 V2000
    0.0000    0.0000    0.0000 O   0  0  0  0  0  0  0  0  0  0  0  0
   -0.0196   -0.8241    0.0000 C   0  0  0  0  0  0  0  0  0  0  0  0
   -0.7522   -1.2232    0.0000 O   0  0  0  0  0  0  0  0  0  0  0  0
    0.6868   -1.2428    0.0000 C   0  0  0  0  0  0  0  0  0  0  0  0
    1.4063   -0.8307    0.0000 C   0  0  2  0  0  0  0  0  0  0  0  0
    0.8765   -0.1831    0.0000 O   0  0  0  0  0  0  0  0  0  0  0  0
    2.2174   -0.6934    0.0000 C   0  0  0  0  0  0  0  0  0  0  0  0
    1.6745   -1.6091    0.0000 C   0  0  0  0  0  0  0  0  0  0  0  0
    1.1643    0.6018    0.0000 C   0  0  0  0  0  0  0  0  0  0  0  0
    2.8584   -1.2101    0.0000 N   0  0  0  0  0  2  0  0  0  0  0  0
    2.5052    0.0916    0.0000 C   0  0  0  0  0  0  0  0  0  0  0  0
    1.1251   -2.2305    0.0000 C   0  0  0  0  0  0  0  0  0  0  0  0
    1.9754    0.7391    0.0000 C   0  0  0  0  0  0  0  0  0  0  0  0
    3.5452   -0.7522    0.0000 C   0  0  0  0  0  0  0  0  0  0  0  0
    3.3294    0.0589    0.0000 C   0  0  0  0  0  0  0  0  0  0  0  0
    4.3432   -0.9615    0.0000 C   0  0  0  0  0  0  0  0  0  0  0  0
    3.9115    0.6541    0.0000 C   0  0  0  0  0  0  0  0  0  0  0  0
    4.9254   -0.3663    0.0000 C   0  0  0  0  0  0  0  0  0  0  0  0
    4.5525   -1.7595    0.0000 C   0  0  0  0  0  0  0  0  0  0  0  0
    4.7095    0.4448    0.0000 C   0  0  0  0  0  0  0  0  0  0  0  0
    5.3505   -1.9688    0.0000 C   0  0  0  0  0  0  0  0  0  0  0  0
  1  2  2  0  0  0  0
  2  3  1  0  0  0  0
  2  4  1  0  0  0  0
  5  4  1  6  0  0  0
  5  6  1  0  0  0  0
  5  7  1  0  0  0  0
  5  8  1  0  0  0  0
  6  9  1  0  0  0  0
  7 10  1  0  0  0  0
  7 11  2  0  0  0  0
  8 12  1  0  0  0  0
  9 13  1  0  0  0  0
 10 14  1  0  0  0  0
 11 15  1  0  0  0  0
 14 16  2  0  0  0  0
 15 17  2  0  0  0  0
 16 18  1  0  0  0  0
 16 19  1  0  0  0  0
 17 20  1  0  0  0  0
 19 21  1  0  0  0  0
 11 13  1  0  0  0  0
 14 15  1  0  0  0  0
 18 20  2  0  0  0  0
M  RAD  1  10   2
M  END

>  <name>
Etodolac

>  <ROTATABLE_BONDCOUNT>
4

>  <HBDScore>
0.8333333333333334

>  <logD>
0.79

>  <MPOScore>
5.513333333333333

>  <logDScore>
1.0

>  <MW>
286.351

>  <charge_dist(7.4)>
-1.00

>  <CNS>
FALSE

>  <ArRings>
2

>  <HBD>
1

>  <BALABAN_INDEX>
1.61

>  <bpKa>
-4.21

>  <TPSAScore>
1.0

>  <MWScore>
1.0

>  <bpKaScore>
1.0

>  <logPScore>
0.6799999999999999

>  <MPO_area>
84.67

>  <TPSA>
59.42

>  <logP>
3.64

$$$$

  Mrv1722703221715202D          

 42 48  0  0  0  0            999 V2000
    0.0000    0.0000    0.0000 O   0  0  0  0  0  0  0  0  0  0  0  0
    0.5430    0.6205    0.0000 C   0  0  0  0  0  0  0  0  0  0  0  0
    1.3510    0.5430    0.0000 O   0  0  0  0  0  0  0  0  0  0  0  0
    0.3620    1.4286    0.0000 C   0  0  1  0  0  0  0  0  0  0  0  0
    1.6742    1.2993    0.0000 C   0  0  0  0  0  0  0  0  0  0  0  0
   -0.3555    1.8423    0.0000 C   0  0  2  0  0  0  0  0  0  0  0  0
    1.0666    1.8488    0.0000 C   0  0  1  0  0  0  0  0  0  0  0  0
   -0.3685    2.6697    0.0000 C   0  0  0  0  0  0  0  0  0  0  0  0
   -1.0731    1.4351    0.0000 C   0  0  0  0  0  0  0  0  0  0  0  0
    1.0537    2.6762    0.0000 C   0  0  2  0  0  0  0  0  0  0  0  0
    0.3362    3.0899    0.0000 C   0  0  0  0  0  0  0  0  0  0  0  0
   -1.0860    3.0834    0.0000 C   0  0  0  0  0  0  0  0  0  0  0  0
   -1.0731    0.6205    0.0000 C   0  0  0  0  0  0  0  0  0  0  0  0
   -1.7906    1.8488    0.0000 C   0  0  0  0  0  0  0  0  0  0  0  0
    1.7582    3.0963    0.0000 O   0  0  0  0  0  0  0  0  0  0  0  0
    0.3232    3.9173    0.0000 C   0  0  0  0  0  0  0  0  0  0  0  0
   -1.0989    3.9109    0.0000 C   0  0  0  0  0  0  0  0  0  0  0  0
   -1.7906    0.2133    0.0000 C   0  0  0  0  0  0  0  0  0  0  0  0
   -2.5081    1.4415    0.0000 C   0  0  0  0  0  0  0  0  0  0  0  0
    2.4629    2.6956    0.0000 C   0  0  1  0  0  0  0  0  0  0  0  0
   -0.3943    4.3310    0.0000 C   0  0  0  0  0  0  0  0  0  0  0  0
   -1.7195    4.4668    0.0000 O   0  0  0  0  0  0  0  0  0  0  0  0
   -1.7906   -0.6012    0.0000 O   0  0  0  0  0  0  0  0  0  0  0  0
   -2.5081    0.6270    0.0000 C   0  0  0  0  0  0  0  0  0  0  0  0
   -3.2256    1.8552    0.0000 O   0  0  0  0  0  0  0  0  0  0  0  0
    2.4629    1.8811    0.0000 O   0  0  0  0  0  0  0  0  0  0  0  0
    3.1675    3.1158    0.0000 C   0  0  1  0  0  0  0  0  0  0  0  0
   -0.5753    5.1390    0.0000 O   0  0  0  0  0  0  0  0  0  0  0  0
   -1.3962    5.2231    0.0000 C   0  0  0  0  0  0  0  0  0  0  0  0
   -2.5081   -1.0084    0.0000 C   0  0  0  0  0  0  0  0  0  0  0  0
   -3.2256    0.2198    0.0000 O   0  0  0  0  0  0  0  0  0  0  0  0
   -3.2386    2.6826    0.0000 C   0  0  0  0  0  0  0  0  0  0  0  0
    3.1675    1.4803    0.0000 C   0  0  2  0  0  0  0  0  0  0  0  0
    3.1546    3.9432    0.0000 O   0  0  0  0  0  0  0  0  0  0  0  0
    3.8721    2.7149    0.0000 C   0  0  1  0  0  0  0  0  0  0  0  0
    3.8721    1.9005    0.0000 C   0  0  1  0  0  0  0  0  0  0  0  0
    3.1675    0.6658    0.0000 C   0  0  0  0  0  0  0  0  0  0  0  0
    4.5767    3.1352    0.0000 O   0  0  0  0  0  0  0  0  0  0  0  0
    4.5767    1.4997    0.0000 O   0  0  0  0  0  0  0  0  0  0  0  0
    3.8721    0.2650    0.0000 O   0  0  0  0  0  0  0  0  0  0  0  0
    4.5767    0.6852    0.0000 C   0  0  2  0  0  0  0  0  0  0  0  0
    5.2813    0.2845    0.0000 C   0  0  0  0  0  0  0  0  0  0  0  0
  1  2  2  0  0  0  0
  2  3  1  0  0  0  0
  4  2  1  1  0  0  0
  3  5  1  0  0  0  0
  4  6  1  0  0  0  0
  4  7  1  0  0  0  0
  6  8  1  0  0  0  0
  6  9  1  1  0  0  0
  7 10  1  0  0  0  0
  8 11  2  0  0  0  0
  8 12  1  0  0  0  0
  9 13  2  0  0  0  0
  9 14  1  0  0  0  0
 10 15  1  6  0  0  0
 11 16  1  0  0  0  0
 12 17  2  0  0  0  0
 13 18  1  0  0  0  0
 14 19  2  0  0  0  0
 20 15  1  6  0  0  0
 16 21  2  0  0  0  0
 17 22  1  0  0  0  0
 18 23  1  0  0  0  0
 18 24  2  0  0  0  0
 19 25  1  0  0  0  0
 20 26  1  0  0  0  0
 20 27  1  0  0  0  0
 21 28  1  0  0  0  0
 22 29  1  0  0  0  0
 23 30  1  0  0  0  0
 24 31  1  0  0  0  0
 25 32  1  0  0  0  0
 33 26  1  6  0  0  0
 27 34  1  1  0  0  0
 27 35  1  0  0  0  0
 33 36  1  0  0  0  0
 33 37  1  0  0  0  0
 35 38  1  6  0  0  0
 36 39  1  1  0  0  0
 37 40  1  0  0  0  0
 39 41  1  0  0  0  0
 41 42  1  1  0  0  0
  7  5  1  6  0  0  0
 10 11  1  0  0  0  0
 17 21  1  0  0  0  0
 19 24  1  0  0  0  0
 28 29  1  0  0  0  0
 35 36  1  0  0  0  0
 40 41  1  0  0  0  0
M  END

>  <name>
Etoposide

>  <ROTATABLE_BONDCOUNT>
5

>  <HBDScore>
0.16666666666666674

>  <dipole>
6.66

>  <logD>
1.16

>  <MPOScore>
3.166666666666667

>  <logDScore>
1.0

>  <MW>
588.562

>  <charge_dist(7.4)>
-0.01

>  <CNS>
FALSE

>  <ArRings>
2

>  <HBD>
3

>  <BALABAN_INDEX>
1.19

>  <bpKa>
-3.69

>  <TPSAScore>
0.0

>  <MWScore>
0.0

>  <bpKaScore>
1.0

>  <logPScore>
1.0

>  <MPO_area>
36.11

>  <TPSA>
160.83

>  <logP>
1.16

$$$$

  Mrv1722703221715202D          

 28 30  0  0  0  0            999 V2000
    0.0000    0.0000    0.0000 Br  0  0  0  0  0  0  0  0  0  0  0  0
    0.3662   -0.7391    0.0000 C   0  0  0  0  0  0  0  0  0  0  0  0
   -0.0981   -1.4257    0.0000 C   0  0  0  0  0  0  0  0  0  0  0  0
    1.1903   -0.7783    0.0000 C   0  0  0  0  0  0  0  0  0  0  0  0
   -0.9353   -1.3734    0.0000 O   0  0  0  0  0  0  0  0  0  0  0  0
    0.2681   -2.1648    0.0000 N   0  0  0  0  0  0  0  0  0  0  0  0
    1.5565   -1.5173    0.0000 N   0  0  0  0  0  0  0  0  0  0  0  0
    1.6416   -0.0785    0.0000 N   0  0  0  0  0  0  0  0  0  0  0  0
   -1.3996   -2.0602    0.0000 C   0  0  0  0  0  0  0  0  0  0  0  0
    1.0922   -2.2040    0.0000 C   0  0  0  0  0  0  0  0  0  0  0  0
   -1.0333   -2.7992    0.0000 C   0  0  0  0  0  0  0  0  0  0  0  0
   -2.2367   -2.0078    0.0000 C   0  0  0  0  0  0  0  0  0  0  0  0
    1.4584   -2.9431    0.0000 N   0  0  0  0  0  0  0  0  0  0  0  0
   -1.4977   -3.4859    0.0000 C   0  0  0  0  0  0  0  0  0  0  0  0
   -0.2093   -2.8384    0.0000 C   0  0  0  0  0  0  0  0  0  0  0  0
   -2.7011   -2.6945    0.0000 C   0  0  0  0  0  0  0  0  0  0  0  0
   -2.6160   -1.2557    0.0000 C   0  0  0  0  0  0  0  0  0  0  0  0
    2.2825   -2.9823    0.0000 C   0  0  0  0  0  0  0  0  0  0  0  0
   -2.3348   -3.4336    0.0000 C   0  0  0  0  0  0  0  0  0  0  0  0
    2.6487   -3.7213    0.0000 C   0  0  0  0  0  0  0  0  0  0  0  0
    2.7338   -2.2825    0.0000 C   0  0  0  0  0  0  0  0  0  0  0  0
   -2.7992   -4.1203    0.0000 C   0  0  0  0  0  0  0  0  0  0  0  0
    3.4728   -3.7606    0.0000 C   0  0  0  0  0  0  0  0  0  0  0  0
    3.5578   -2.3217    0.0000 C   0  0  0  0  0  0  0  0  0  0  0  0
   -3.2635   -4.8070    0.0000 N   0  0  0  0  0  0  0  0  0  0  0  0
    3.9241   -3.0608    0.0000 C   0  0  0  0  0  0  0  0  0  0  0  0
    4.7481   -3.1000    0.0000 C   0  0  0  0  0  0  0  0  0  0  0  0
    5.5722   -3.1393    0.0000 N   0  0  0  0  0  0  0  0  0  0  0  0
  1  2  1  0  0  0  0
  2  3  2  0  0  0  0
  2  4  1  0  0  0  0
  3  5  1  0  0  0  0
  3  6  1  0  0  0  0
  4  7  2  0  0  0  0
  4  8  1  0  0  0  0
  5  9  1  0  0  0  0
  6 10  2  0  0  0  0
  9 11  2  0  0  0  0
  9 12  1  0  0  0  0
 10 13  1  0  0  0  0
 11 14  1  0  0  0  0
 11 15  1  0  0  0  0
 12 16  2  0  0  0  0
 12 17  1  0  0  0  0
 13 18  1  0  0  0  0
 14 19  2  0  0  0  0
 18 20  2  0  0  0  0
 18 21  1  0  0  0  0
 19 22  1  0  0  0  0
 20 23  1  0  0  0  0
 21 24  2  0  0  0  0
 22 25  3  0  0  0  0
 23 26  2  0  0  0  0
 26 27  1  0  0  0  0
 27 28  3  0  0  0  0
  7 10  1  0  0  0  0
 16 19  1  0  0  0  0
 24 26  1  0  0  0  0
M  END

>  <name>
Etravirine

>  <ROTATABLE_BONDCOUNT>
4

>  <HBDScore>
0.5

>  <dipole>
5.82

>  <logD>
5.54

>  <MPOScore>
1.9622499999999998

>  <logDScore>
0.0

>  <MW>
435.285

>  <charge_dist(7.4)>
-0.00

>  <CNS>
FALSE

>  <ArRings>
3

>  <HBD>
2

>  <BALABAN_INDEX>
1.45

>  <bpKa>
2.49

>  <TPSAScore>
0.0

>  <MWScore>
0.4622499999999998

>  <bpKaScore>
1.0

>  <logPScore>
0.0

>  <MPO_area>
12.19

>  <TPSA>
120.64

>  <logP>
5.54

$$$$

  Mrv1722703221715202D          

 30 33  0  0  0  0            999 V2000
    0.0000    0.0000    0.0000 F   0  0  0  0  0  0  0  0  0  0  0  0
   -0.7029    0.4449    0.0000 C   0  0  0  0  0  0  0  0  0  0  0  0
   -1.4315    0.0709    0.0000 C   0  0  0  0  0  0  0  0  0  0  0  0
   -0.6771    1.2703    0.0000 C   0  0  0  0  0  0  0  0  0  0  0  0
   -2.1344    0.5159    0.0000 C   0  0  0  0  0  0  0  0  0  0  0  0
   -1.3799    1.7153    0.0000 C   0  0  0  0  0  0  0  0  0  0  0  0
   -2.1086    1.3413    0.0000 C   0  0  0  0  0  0  0  0  0  0  0  0
   -2.8115    1.7862    0.0000 N   0  0  0  0  0  0  0  0  0  0  0  0
   -3.6175    1.6121    0.0000 C   0  0  0  0  0  0  0  0  0  0  0  0
   -2.9985    2.5922    0.0000 C   0  0  1  0  0  0  0  0  0  0  0  0
   -4.0624    0.9221    0.0000 O   0  0  0  0  0  0  0  0  0  0  0  0
   -3.8045    2.4181    0.0000 C   0  0  1  0  0  0  0  0  0  0  0  0
   -2.5665    3.2951    0.0000 C   0  0  0  0  0  0  0  0  0  0  0  0
   -4.5074    2.8631    0.0000 C   0  0  0  0  0  0  0  0  0  0  0  0
   -1.7539    3.2693    0.0000 C   0  0  0  0  0  0  0  0  0  0  0  0
   -2.9533    4.0237    0.0000 C   0  0  0  0  0  0  0  0  0  0  0  0
   -5.2360    2.4890    0.0000 C   0  0  0  0  0  0  0  0  0  0  0  0
   -1.3219    3.9722    0.0000 C   0  0  0  0  0  0  0  0  0  0  0  0
   -2.5213    4.7266    0.0000 C   0  0  0  0  0  0  0  0  0  0  0  0
   -5.9389    2.9340    0.0000 C   0  0  2  0  0  0  0  0  0  0  0  0
   -1.7088    4.7008    0.0000 C   0  0  0  0  0  0  0  0  0  0  0  0
   -5.9131    3.7594    0.0000 O   0  0  0  0  0  0  0  0  0  0  0  0
   -6.6675    2.5600    0.0000 C   0  0  0  0  0  0  0  0  0  0  0  0
   -1.2768    5.4037    0.0000 O   0  0  0  0  0  0  0  0  0  0  0  0
   -7.3705    3.0049    0.0000 C   0  0  0  0  0  0  0  0  0  0  0  0
   -6.7063    1.7475    0.0000 C   0  0  0  0  0  0  0  0  0  0  0  0
   -8.0991    2.6309    0.0000 C   0  0  0  0  0  0  0  0  0  0  0  0
   -7.4349    1.3735    0.0000 C   0  0  0  0  0  0  0  0  0  0  0  0
   -8.1378    1.8184    0.0000 C   0  0  0  0  0  0  0  0  0  0  0  0
   -8.8664    1.4444    0.0000 F   0  0  0  0  0  0  0  0  0  0  0  0
  1  2  1  0  0  0  0
  2  3  2  0  0  0  0
  2  4  1  0  0  0  0
  3  5  1  0  0  0  0
  4  6  2  0  0  0  0
  5  7  2  0  0  0  0
  7  8  1  0  0  0  0
  8  9  1  0  0  0  0
  8 10  1  0  0  0  0
  9 11  2  0  0  0  0
  9 12  1  0  0  0  0
 10 13  1  1  0  0  0
 12 14  1  6  0  0  0
 13 15  2  0  0  0  0
 13 16  1  0  0  0  0
 14 17  1  0  0  0  0
 15 18  1  0  0  0  0
 16 19  2  0  0  0  0
 17 20  1  0  0  0  0
 18 21  2  0  0  0  0
 20 22  1  1  0  0  0
 20 23  1  0  0  0  0
 21 24  1  0  0  0  0
 23 25  2  0  0  0  0
 23 26  1  0  0  0  0
 25 27  1  0  0  0  0
 26 28  2  0  0  0  0
 27 29  2  0  0  0  0
 29 30  1  0  0  0  0
  6  7  1  0  0  0  0
 10 12  1  0  0  0  0
 19 21  1  0  0  0  0
 28 29  1  0  0  0  0
M  END

>  <name>
Ezetimibe

>  <ROTATABLE_BONDCOUNT>
6

>  <HBDScore>
0.5

>  <dipole>
4.55

>  <logD>
4.56

>  <MPOScore>
3.3669071428571433

>  <logDScore>
0.0

>  <MW>
409.433

>  <charge_dist(7.4)>
-0.01

>  <CNS>
FALSE

>  <ArRings>
3

>  <HBD>
2

>  <BALABAN_INDEX>
1.24

>  <bpKa>
-3.04

>  <TPSAScore>
1.0

>  <MWScore>
0.6469071428571429

>  <bpKaScore>
1.0

>  <logPScore>
0.2200000000000002

>  <MPO_area>
34.67

>  <TPSA>
60.77

>  <logP>
4.56

$$$$

  Mrv1722703221715202D          

 18 19  0  0  0  0            999 V2000
    0.0000    0.0000    0.0000 O   0  0  0  0  0  0  0  0  0  0  0  0
    0.0769   -0.8073    0.0000 C   0  0  0  0  0  0  0  0  0  0  0  0
    0.8201   -1.1341    0.0000 O   0  0  0  0  0  0  0  0  0  0  0  0
   -0.5895   -1.2814    0.0000 C   0  0  1  0  0  0  0  0  0  0  0  0
   -1.3455   -0.9418    0.0000 C   0  0  0  0  0  0  0  0  0  0  0  0
   -0.5126   -2.0887    0.0000 C   0  0  0  0  0  0  0  0  0  0  0  0
   -2.0118   -1.4159    0.0000 C   0  0  0  0  0  0  0  0  0  0  0  0
   -1.4352   -0.1217    0.0000 C   0  0  0  0  0  0  0  0  0  0  0  0
   -2.7678   -1.0764    0.0000 C   0  0  0  0  0  0  0  0  0  0  0  0
   -2.1912    0.2178    0.0000 C   0  0  0  0  0  0  0  0  0  0  0  0
   -3.4342   -1.5505    0.0000 O   0  0  0  0  0  0  0  0  0  0  0  0
   -2.8576   -0.2563    0.0000 C   0  0  0  0  0  0  0  0  0  0  0  0
   -4.1902   -1.2109    0.0000 C   0  0  0  0  0  0  0  0  0  0  0  0
   -4.2799   -0.3908    0.0000 C   0  0  0  0  0  0  0  0  0  0  0  0
   -4.8566   -1.6851    0.0000 C   0  0  0  0  0  0  0  0  0  0  0  0
   -5.0360   -0.0513    0.0000 C   0  0  0  0  0  0  0  0  0  0  0  0
   -5.6126   -1.3455    0.0000 C   0  0  0  0  0  0  0  0  0  0  0  0
   -5.7023   -0.5254    0.0000 C   0  0  0  0  0  0  0  0  0  0  0  0
  1  2  2  0  0  0  0
  2  3  1  0  0  0  0
  2  4  1  0  0  0  0
  4  5  1  0  0  0  0
  4  6  1  6  0  0  0
  5  7  2  0  0  0  0
  5  8  1  0  0  0  0
  7  9  1  0  0  0  0
  8 10  2  0  0  0  0
  9 11  1  0  0  0  0
  9 12  2  0  0  0  0
 11 13  1  0  0  0  0
 13 14  2  0  0  0  0
 13 15  1  0  0  0  0
 14 16  1  0  0  0  0
 15 17  2  0  0  0  0
 16 18  2  0  0  0  0
 10 12  1  0  0  0  0
 17 18  1  0  0  0  0
M  END

>  <name>
Fenoprofen

>  <ROTATABLE_BONDCOUNT>
4

>  <HBDScore>
0.8333333333333334

>  <dipole>
4.16

>  <logD>
0.47

>  <MPOScore>
5.508333333333333

>  <logDScore>
1.0

>  <MW>
242.274

>  <charge_dist(7.4)>
-1.00

>  <CNS>
FALSE

>  <ArRings>
2

>  <HBD>
1

>  <BALABAN_INDEX>
1.69

>  <bpKa>
-3.69

>  <TPSAScore>
1.0

>  <MWScore>
1.0

>  <bpKaScore>
1.0

>  <logPScore>
0.675

>  <MPO_area>
84.51

>  <TPSA>
46.53

>  <logP>
3.65

$$$$

  Mrv1722703221715202D          

 30 31  0  0  0  0            999 V2000
    0.0000    0.0000    0.0000 O   0  0  0  0  0  0  0  0  0  0  0  0
    0.4856    0.6669    0.0000 C   0  0  0  0  0  0  0  0  0  0  0  0
    0.1489    1.4309    0.0000 O   0  0  0  0  0  0  0  0  0  0  0  0
    1.3015    0.5763    0.0000 C   0  0  0  0  0  0  0  0  0  0  0  0
   -0.6798    1.5345    0.0000 C   0  0  0  0  0  0  0  0  0  0  0  0
    1.6251   -0.1748    0.0000 C   0  0  0  0  0  0  0  0  0  0  0  0
    1.7870    1.2432    0.0000 C   0  0  0  0  0  0  0  0  0  0  0  0
   -1.0165    2.2985    0.0000 C   0  0  0  0  0  0  0  0  0  0  0  0
   -1.1784    0.8806    0.0000 C   0  0  0  0  0  0  0  0  0  0  0  0
   -1.8453    2.4022    0.0000 C   0  0  0  0  0  0  0  0  0  0  0  0
   -0.5309    2.9655    0.0000 C   0  0  2  0  0  0  0  0  0  0  0  0
   -2.0072    0.9842    0.0000 C   0  0  0  0  0  0  0  0  0  0  0  0
   -2.3439    1.7482    0.0000 C   0  0  0  0  0  0  0  0  0  0  0  0
   -0.8676    3.7295    0.0000 C   0  0  0  0  0  0  0  0  0  0  0  0
    0.2849    2.8748    0.0000 C   0  0  0  0  0  0  0  0  0  0  0  0
   -3.1727    1.8518    0.0000 C   0  0  0  0  0  0  0  0  0  0  0  0
   -0.3820    4.3964    0.0000 C   0  0  0  0  0  0  0  0  0  0  0  0
   -1.6964    3.8331    0.0000 C   0  0  0  0  0  0  0  0  0  0  0  0
    0.7705    3.5417    0.0000 C   0  0  0  0  0  0  0  0  0  0  0  0
   -3.5093    2.6158    0.0000 O   0  0  0  0  0  0  0  0  0  0  0  0
   -0.7187    5.1604    0.0000 C   0  0  0  0  0  0  0  0  0  0  0  0
   -2.0331    4.5971    0.0000 C   0  0  0  0  0  0  0  0  0  0  0  0
    1.5863    3.4510    0.0000 N   0  0  0  0  0  0  0  0  0  0  0  0
   -1.5475    5.2640    0.0000 C   0  0  0  0  0  0  0  0  0  0  0  0
    2.0720    4.1180    0.0000 C   0  0  0  0  0  0  0  0  0  0  0  0
    1.9101    2.7000    0.0000 C   0  0  0  0  0  0  0  0  0  0  0  0
    2.8877    4.0273    0.0000 C   0  0  0  0  0  0  0  0  0  0  0  0
    1.7352    4.8820    0.0000 C   0  0  0  0  0  0  0  0  0  0  0  0
    2.7259    2.6093    0.0000 C   0  0  0  0  0  0  0  0  0  0  0  0
    1.4115    2.0460    0.0000 C   0  0  0  0  0  0  0  0  0  0  0  0
  1  2  2  0  0  0  0
  2  3  1  0  0  0  0
  2  4  1  0  0  0  0
  3  5  1  0  0  0  0
  4  6  1  0  0  0  0
  4  7  1  0  0  0  0
  5  8  2  0  0  0  0
  5  9  1  0  0  0  0
  8 10  1  0  0  0  0
  8 11  1  0  0  0  0
  9 12  2  0  0  0  0
 10 13  2  0  0  0  0
 11 14  1  0  0  0  0
 11 15  1  6  0  0  0
 13 16  1  0  0  0  0
 14 17  2  0  0  0  0
 14 18  1  0  0  0  0
 15 19  1  0  0  0  0
 16 20  1  0  0  0  0
 17 21  1  0  0  0  0
 18 22  2  0  0  0  0
 19 23  1  0  0  0  0
 21 24  2  0  0  0  0
 23 25  1  0  0  0  0
 23 26  1  0  0  0  0
 25 27  1  0  0  0  0
 25 28  1  0  0  0  0
 26 29  1  0  0  0  0
 26 30  1  0  0  0  0
 12 13  1  0  0  0  0
 22 24  1  0  0  0  0
M  END

>  <name>
Fesoterodine

>  <ROTATABLE_BONDCOUNT>
11

>  <HBDScore>
0.8333333333333334

>  <dipole>
2.90

>  <logD>
2.65

>  <MPOScore>
3.1398619047619047

>  <logDScore>
0.675

>  <MW>
411.586

>  <charge_dist(7.4)>
1.00

>  <CNS>
FALSE

>  <ArRings>
2

>  <HBD>
1

>  <BALABAN_INDEX>
2.14

>  <bpKa>
10.64

>  <TPSAScore>
1.0

>  <MWScore>
0.6315285714285713

>  <bpKaScore>
0.0

>  <logPScore>
0.0

>  <MPO_area>
30.37

>  <TPSA>
49.77

>  <logP>
5.70

$$$$

  Mrv1722703221715202D          

 37 40  0  0  0  0            999 V2000
    0.0000    0.0000    0.0000 O   0  0  0  0  0  0  0  0  0  0  0  0
    0.5658   -0.5976    0.0000 C   0  0  0  0  0  0  0  0  0  0  0  0
    0.3242   -1.3860    0.0000 O   0  0  0  0  0  0  0  0  0  0  0  0
    1.3670   -0.4006    0.0000 C   0  0  0  0  0  0  0  0  0  0  0  0
    2.1681   -0.2035    0.0000 C   0  0  0  0  0  0  0  0  0  0  0  0
    1.5514   -1.2017    0.0000 C   0  0  0  0  0  0  0  0  0  0  0  0
    1.1699    0.4133    0.0000 C   0  0  0  0  0  0  0  0  0  0  0  0
    2.3970    0.5976    0.0000 C   0  0  0  0  0  0  0  0  0  0  0  0
    2.7339   -0.8011    0.0000 C   0  0  0  0  0  0  0  0  0  0  0  0
    3.1981    0.7947    0.0000 C   0  0  0  0  0  0  0  0  0  0  0  0
    3.5350   -0.6040    0.0000 C   0  0  0  0  0  0  0  0  0  0  0  0
    3.7639    0.1971    0.0000 C   0  0  0  0  0  0  0  0  0  0  0  0
    4.5650    0.3942    0.0000 C   0  0  1  0  0  0  0  0  0  0  0  0
    4.7939    1.1953    0.0000 O   0  0  0  0  0  0  0  0  0  0  0  0
    5.1309   -0.2035    0.0000 C   0  0  0  0  0  0  0  0  0  0  0  0
    5.9320   -0.0063    0.0000 C   0  0  0  0  0  0  0  0  0  0  0  0
    6.4978   -0.6040    0.0000 C   0  0  0  0  0  0  0  0  0  0  0  0
    7.2990   -0.4069    0.0000 N   0  0  0  0  0  0  0  0  0  0  0  0
    7.8648   -1.0045    0.0000 C   0  0  0  0  0  0  0  0  0  0  0  0
    7.5278    0.3942    0.0000 C   0  0  0  0  0  0  0  0  0  0  0  0
    8.6659   -0.8075    0.0000 C   0  0  0  0  0  0  0  0  0  0  0  0
    8.3289    0.5913    0.0000 C   0  0  0  0  0  0  0  0  0  0  0  0
    8.8948   -0.0063    0.0000 C   0  0  0  0  0  0  0  0  0  0  0  0
    9.6959    0.1907    0.0000 C   0  0  0  0  0  0  0  0  0  0  0  0
    9.4988    1.0045    0.0000 O   0  0  0  0  0  0  0  0  0  0  0  0
   10.4970    0.3878    0.0000 C   0  0  0  0  0  0  0  0  0  0  0  0
    9.8803   -0.6104    0.0000 C   0  0  0  0  0  0  0  0  0  0  0  0
   11.0629   -0.2098    0.0000 C   0  0  0  0  0  0  0  0  0  0  0  0
   10.7259    1.1889    0.0000 C   0  0  0  0  0  0  0  0  0  0  0  0
    9.2699   -1.1762    0.0000 C   0  0  0  0  0  0  0  0  0  0  0  0
   10.6687   -0.8392    0.0000 C   0  0  0  0  0  0  0  0  0  0  0  0
   11.8640   -0.0127    0.0000 C   0  0  0  0  0  0  0  0  0  0  0  0
   11.5270    1.3860    0.0000 C   0  0  0  0  0  0  0  0  0  0  0  0
    9.4543   -1.9773    0.0000 C   0  0  0  0  0  0  0  0  0  0  0  0
   10.8531   -1.6404    0.0000 C   0  0  0  0  0  0  0  0  0  0  0  0
   12.0929    0.7884    0.0000 C   0  0  0  0  0  0  0  0  0  0  0  0
   10.2427   -2.2062    0.0000 C   0  0  0  0  0  0  0  0  0  0  0  0
  1  2  2  0  0  0  0
  2  3  1  0  0  0  0
  2  4  1  0  0  0  0
  4  5  1  0  0  0  0
  4  6  1  0  0  0  0
  4  7  1  0  0  0  0
  5  8  2  0  0  0  0
  5  9  1  0  0  0  0
  8 10  1  0  0  0  0
  9 11  2  0  0  0  0
 10 12  2  0  0  0  0
 12 13  1  0  0  0  0
 13 14  1  1  0  0  0
 13 15  1  0  0  0  0
 15 16  1  0  0  0  0
 16 17  1  0  0  0  0
 17 18  1  0  0  0  0
 18 19  1  0  0  0  0
 18 20  1  0  0  0  0
 19 21  1  0  0  0  0
 20 22  1  0  0  0  0
 21 23  1  0  0  0  0
 23 24  1  0  0  0  0
 24 25  1  0  0  0  0
 24 26  1  0  0  0  0
 24 27  1  0  0  0  0
 26 28  2  0  0  0  0
 26 29  1  0  0  0  0
 27 30  2  0  0  0  0
 27 31  1  0  0  0  0
 28 32  1  0  0  0  0
 29 33  2  0  0  0  0
 30 34  1  0  0  0  0
 31 35  2  0  0  0  0
 32 36  2  0  0  0  0
 34 37  2  0  0  0  0
 11 12  1  0  0  0  0
 22 23  1  0  0  0  0
 33 36  1  0  0  0  0
 35 37  1  0  0  0  0
M  END

>  <name>
Fexofenadine

>  <ROTATABLE_BONDCOUNT>
10

>  <HBDScore>
0.16666666666666674

>  <dipole>
4.86

>  <logD>
2.93

>  <MPOScore>
3.196666666666667

>  <logDScore>
0.5349999999999999

>  <MW>
501.667

>  <charge_dist(7.4)>
-0.02

>  <CNS>
FALSE

>  <ArRings>
3

>  <HBD>
3

>  <BALABAN_INDEX>
1.20

>  <bpKa>
9.01

>  <TPSAScore>
1.0

>  <MWScore>
0.0

>  <bpKaScore>
0.4950000000000001

>  <logPScore>
1.0

>  <MPO_area>
31.37

>  <TPSA>
81.00

>  <logP>
2.94

$$$$

  Mrv1722703221715202D          

 29 32  0  0  0  0            999 V2000
    0.0000    0.0000    0.0000 O   0  0  0  0  0  0  0  0  0  0  0  0
   -0.6272    0.5448    0.0000 C   0  0  0  0  0  0  0  0  0  0  0  0
   -1.4063    0.2851    0.0000 C   0  0  0  0  0  0  0  0  0  0  0  0
   -0.4751    1.3557    0.0000 C   0  0  0  0  0  0  0  0  0  0  0  0
   -2.0335    0.8298    0.0000 C   0  0  0  0  0  0  0  0  0  0  0  0
   -1.5710   -0.5131    0.0000 C   0  0  0  0  0  0  0  0  0  0  0  0
   -1.1023    1.9004    0.0000 C   0  0  0  0  0  0  0  0  0  0  0  0
    0.2914    1.6280    0.0000 C   0  0  0  0  0  0  0  0  0  0  0  0
   -1.8814    1.6407    0.0000 O   0  0  0  0  0  0  0  0  0  0  0  0
   -2.8126    0.5701    0.0000 C   0  0  0  0  0  0  0  0  0  0  0  0
   -2.3502   -0.7728    0.0000 C   0  0  0  0  0  0  0  0  0  0  0  0
   -0.9502    2.7113    0.0000 C   0  0  0  0  0  0  0  0  0  0  0  0
   -3.4398    1.1149    0.0000 C   0  0  0  0  0  0  0  0  0  0  0  0
   -2.9773   -0.2281    0.0000 C   0  0  0  0  0  0  0  0  0  0  0  0
   -0.1837    2.9837    0.0000 C   0  0  0  0  0  0  0  0  0  0  0  0
   -1.5773    3.2561    0.0000 C   0  0  0  0  0  0  0  0  0  0  0  0
   -3.2877    1.9258    0.0000 O   0  0  0  0  0  0  0  0  0  0  0  0
   -4.2190    0.8552    0.0000 O   0  0  0  0  0  0  0  0  0  0  0  0
   -0.0317    3.7945    0.0000 C   0  0  0  0  0  0  0  0  0  0  0  0
   -1.4253    4.0669    0.0000 C   0  0  0  0  0  0  0  0  0  0  0  0
   -4.8461    1.4000    0.0000 C   0  0  0  0  0  0  0  0  0  0  0  0
   -0.6588    4.3393    0.0000 C   0  0  0  0  0  0  0  0  0  0  0  0
   -5.6253    1.1403    0.0000 C   0  0  0  0  0  0  0  0  0  0  0  0
   -6.2524    1.6851    0.0000 N   0  0  0  0  0  0  0  0  0  0  0  0
   -6.1004    2.4959    0.0000 C   0  0  0  0  0  0  0  0  0  0  0  0
   -7.0316    1.4253    0.0000 C   0  0  0  0  0  0  0  0  0  0  0  0
   -6.7275    3.0407    0.0000 C   0  0  0  0  0  0  0  0  0  0  0  0
   -7.6588    1.9701    0.0000 C   0  0  0  0  0  0  0  0  0  0  0  0
   -7.5067    2.7810    0.0000 C   0  0  0  0  0  0  0  0  0  0  0  0
  1  2  2  0  0  0  0
  2  3  1  0  0  0  0
  2  4  1  0  0  0  0
  3  5  2  0  0  0  0
  3  6  1  0  0  0  0
  4  7  2  0  0  0  0
  4  8  1  0  0  0  0
  5  9  1  0  0  0  0
  5 10  1  0  0  0  0
  6 11  2  0  0  0  0
  7 12  1  0  0  0  0
 10 13  1  0  0  0  0
 10 14  2  0  0  0  0
 12 15  2  0  0  0  0
 12 16  1  0  0  0  0
 13 17  2  0  0  0  0
 13 18  1  0  0  0  0
 15 19  1  0  0  0  0
 16 20  2  0  0  0  0
 18 21  1  0  0  0  0
 19 22  2  0  0  0  0
 21 23  1  0  0  0  0
 23 24  1  0  0  0  0
 24 25  1  0  0  0  0
 24 26  1  0  0  0  0
 25 27  1  0  0  0  0
 26 28  1  0  0  0  0
 27 29  1  0  0  0  0
  7  9  1  0  0  0  0
 11 14  1  0  0  0  0
 20 22  1  0  0  0  0
 28 29  1  0  0  0  0
M  END

>  <name>
Flavoxate

>  <ROTATABLE_BONDCOUNT>
6

>  <HBDScore>
1.0

>  <dipole>
3.49

>  <logD>
3.98

>  <MPOScore>
4.165235714285714

>  <logDScore>
0.010000000000000009

>  <MW>
391.467

>  <charge_dist(7.4)>
0.44

>  <CNS>
FALSE

>  <ArRings>
3

>  <HBD>
0

>  <BALABAN_INDEX>
1.26

>  <bpKa>
7.29

>  <TPSAScore>
1.0

>  <MWScore>
0.7752357142857145

>  <bpKaScore>
1.0

>  <logPScore>
0.3799999999999999

>  <MPO_area>
51.39

>  <TPSA>
55.84

>  <logP>
4.24

$$$$

  Mrv1722703221715202D          

 28 29  0  0  0  0            999 V2000
    0.0000    0.0000    0.0000 F   0  0  0  0  0  0  0  0  0  0  0  0
    0.8157   -0.1036    0.0000 C   0  0  0  0  0  0  0  0  0  0  0  0
    0.9193    0.7250    0.0000 F   0  0  0  0  0  0  0  0  0  0  0  0
    0.6991   -0.9193    0.0000 F   0  0  0  0  0  0  0  0  0  0  0  0
    1.6314   -0.2072    0.0000 C   0  0  0  0  0  0  0  0  0  0  0  0
    1.9421   -0.9645    0.0000 O   0  0  0  0  0  0  0  0  0  0  0  0
    2.7577   -1.0682    0.0000 C   0  0  0  0  0  0  0  0  0  0  0  0
    3.0685   -1.8255    0.0000 C   0  0  0  0  0  0  0  0  0  0  0  0
    3.2562   -0.4079    0.0000 C   0  0  0  0  0  0  0  0  0  0  0  0
    2.5571   -2.4729    0.0000 C   0  0  0  0  0  0  0  0  0  0  0  0
    3.8842   -1.9291    0.0000 C   0  0  0  0  0  0  0  0  0  0  0  0
    4.0719   -0.5114    0.0000 C   0  0  0  0  0  0  0  0  0  0  0  0
    2.8678   -3.2303    0.0000 O   0  0  0  0  0  0  0  0  0  0  0  0
    1.7285   -2.3564    0.0000 N   0  0  0  0  0  0  0  0  0  0  0  0
    4.3827   -1.2688    0.0000 C   0  0  0  0  0  0  0  0  0  0  0  0
    1.2171   -3.0038    0.0000 C   0  0  0  0  0  0  0  0  0  0  0  0
    5.1983   -1.3724    0.0000 O   0  0  0  0  0  0  0  0  0  0  0  0
    0.3884   -2.8873    0.0000 C   0  0  2  0  0  0  0  0  0  0  0  0
    5.5090   -2.1298    0.0000 C   0  0  0  0  0  0  0  0  0  0  0  0
    0.0647   -2.1169    0.0000 N   0  0  0  0  0  0  0  0  0  0  0  0
   -0.1230   -3.5346    0.0000 C   0  0  0  0  0  0  0  0  0  0  0  0
    6.3247   -2.2334    0.0000 C   0  0  0  0  0  0  0  0  0  0  0  0
   -0.7639   -2.0003    0.0000 C   0  0  0  0  0  0  0  0  0  0  0  0
   -0.9516   -3.4181    0.0000 C   0  0  0  0  0  0  0  0  0  0  0  0
    7.1404   -2.3369    0.0000 F   0  0  0  0  0  0  0  0  0  0  0  0
    6.2082   -3.0491    0.0000 F   0  0  0  0  0  0  0  0  0  0  0  0
    6.4283   -1.4048    0.0000 F   0  0  0  0  0  0  0  0  0  0  0  0
   -1.2753   -2.6477    0.0000 C   0  0  0  0  0  0  0  0  0  0  0  0
  1  2  1  0  0  0  0
  2  3  1  0  0  0  0
  2  4  1  0  0  0  0
  2  5  1  0  0  0  0
  5  6  1  0  0  0  0
  6  7  1  0  0  0  0
  7  8  2  0  0  0  0
  7  9  1  0  0  0  0
  8 10  1  0  0  0  0
  8 11  1  0  0  0  0
  9 12  2  0  0  0  0
 10 13  2  0  0  0  0
 10 14  1  0  0  0  0
 11 15  2  0  0  0  0
 14 16  1  0  0  0  0
 15 17  1  0  0  0  0
 18 16  1  1  0  0  0
 17 19  1  0  0  0  0
 18 20  1  0  0  0  0
 18 21  1  0  0  0  0
 19 22  1  0  0  0  0
 20 23  1  0  0  0  0
 21 24  1  0  0  0  0
 22 25  1  0  0  0  0
 22 26  1  0  0  0  0
 22 27  1  0  0  0  0
 23 28  1  0  0  0  0
 12 15  1  0  0  0  0
 24 28  1  0  0  0  0
M  END

>  <name>
Flecainide

>  <ROTATABLE_BONDCOUNT>
9

>  <HBDScore>
0.5

>  <dipole>
7.11

>  <logD>
1.01

>  <MPOScore>
4.2068

>  <logDScore>
1.0

>  <MW>
414.348

>  <charge_dist(7.4)>
0.99

>  <CNS>
FALSE

>  <ArRings>
1

>  <HBD>
2

>  <BALABAN_INDEX>
1.78

>  <bpKa>
9.62

>  <TPSAScore>
1.0

>  <MWScore>
0.6117999999999999

>  <bpKaScore>
0.1900000000000004

>  <logPScore>
0.905

>  <MPO_area>
50.83

>  <TPSA>
59.59

>  <logP>
3.19

$$$$

  Mrv1722703221715202D          

 20 22  0  0  0  0            999 V2000
    0.0000    0.0000    0.0000 F   0  0  0  0  0  0  0  0  0  0  0  0
   -0.1035   -0.8089    0.0000 C   0  0  0  0  0  0  0  0  0  0  0  0
    0.5501   -1.2943    0.0000 N   0  0  0  0  0  0  0  0  0  0  0  0
   -0.8671   -1.1260    0.0000 N   0  0  0  0  0  0  0  0  0  0  0  0
    0.4465   -2.1031    0.0000 C   0  0  0  0  0  0  0  0  0  0  0  0
   -0.9707   -1.9349    0.0000 C   0  0  0  0  0  0  0  0  0  0  0  0
    1.1001   -2.5885    0.0000 N   0  0  0  0  0  0  0  0  0  0  0  0
   -0.3171   -2.4202    0.0000 C   0  0  0  0  0  0  0  0  0  0  0  0
   -1.6502   -2.4008    0.0000 N   0  0  0  0  0  0  0  0  0  0  0  0
   -0.5889   -3.1903    0.0000 N   0  0  0  0  0  0  0  0  0  0  0  0
   -1.4107   -3.1774    0.0000 C   0  0  0  0  0  0  0  0  0  0  0  0
   -2.4332   -2.1290    0.0000 C   0  0  1  0  0  0  0  0  0  0  0  0
   -3.1127   -2.5950    0.0000 O   0  0  0  0  0  0  0  0  0  0  0  0
   -2.6856   -1.3395    0.0000 C   0  0  2  0  0  0  0  0  0  0  0  0
   -3.7792   -2.0967    0.0000 C   0  0  2  0  0  0  0  0  0  0  0  0
   -2.2002   -0.6730    0.0000 O   0  0  0  0  0  0  0  0  0  0  0  0
   -3.5139   -1.3266    0.0000 C   0  0  2  0  0  0  0  0  0  0  0  0
   -4.5687   -2.3361    0.0000 C   0  0  0  0  0  0  0  0  0  0  0  0
   -3.9927   -0.6471    0.0000 O   0  0  0  0  0  0  0  0  0  0  0  0
   -5.1770   -1.7731    0.0000 O   0  0  0  0  0  0  0  0  0  0  0  0
  1  2  1  0  0  0  0
  2  3  2  0  0  0  0
  2  4  1  0  0  0  0
  3  5  1  0  0  0  0
  4  6  2  0  0  0  0
  5  7  1  0  0  0  0
  5  8  2  0  0  0  0
  6  9  1  0  0  0  0
  8 10  1  0  0  0  0
  9 11  1  0  0  0  0
 12  9  1  1  0  0  0
 12 13  1  0  0  0  0
 12 14  1  0  0  0  0
 13 15  1  0  0  0  0
 14 16  1  1  0  0  0
 14 17  1  0  0  0  0
 15 18  1  1  0  0  0
 17 19  1  6  0  0  0
 18 20  1  0  0  0  0
  6  8  1  0  0  0  0
 10 11  2  0  0  0  0
 15 17  1  0  0  0  0
M  END

>  <name>
Fludarabine

>  <ROTATABLE_BONDCOUNT>
2

>  <HBDScore>
0.0

>  <dipole>
5.83

>  <logD>
-1.47

>  <MPOScore>
4.0

>  <logDScore>
1.0

>  <MW>
285.235

>  <charge_dist(7.4)>
-0.00

>  <CNS>
FALSE

>  <ArRings>
2

>  <HBD>
4

>  <BALABAN_INDEX>
1.59

>  <bpKa>
0.71

>  <TPSAScore>
0.0

>  <MWScore>
1.0

>  <bpKaScore>
1.0

>  <logPScore>
1.0

>  <MPO_area>
50.0

>  <TPSA>
139.54

>  <logP>
-1.47

$$$$

  Mrv1722703221715202D          

 24 27  0  0  0  0            999 V2000
    0.0000    0.0000    0.0000 F   0  0  0  0  0  0  0  0  0  0  0  0
   -0.2086   -0.4367    0.0000 C   0  0  2  0  0  0  0  0  0  0  0  0
    0.6126   -0.4497    0.0000 C   0  0  2  0  0  0  0  0  0  0  0  0
   -0.6126    0.2998    0.0000 C   0  0  1  0  0  0  0  0  0  0  0  0
   -0.6452   -1.1340    0.0000 C   0  0  2  0  0  0  0  0  0  0  0  0
    1.0036   -1.1731    0.0000 C   0  0  0  0  0  0  0  0  0  0  0  0
    1.0362    0.2607    0.0000 C   0  0  0  0  0  0  0  0  0  0  0  0
    0.4301    0.0130    0.0000 C   0  0  0  0  0  0  0  0  0  0  0  0
   -0.1890    1.0102    0.0000 O   0  0  0  0  0  0  0  0  0  0  0  0
   -1.4468    0.3259    0.0000 C   0  0  0  0  0  0  0  0  0  0  0  0
   -1.4794   -1.1079    0.0000 C   0  0  1  0  0  0  0  0  0  0  0  0
   -0.2542   -1.8574    0.0000 C   0  0  0  0  0  0  0  0  0  0  0  0
    1.8248   -1.1861    0.0000 C   0  0  0  0  0  0  0  0  0  0  0  0
    0.5670   -1.8704    0.0000 C   0  0  0  0  0  0  0  0  0  0  0  0
    1.8574    0.2476    0.0000 C   0  0  0  0  0  0  0  0  0  0  0  0
   -1.8835   -0.3715    0.0000 C   0  0  1  0  0  0  0  0  0  0  0  0
   -2.0529   -1.7010    0.0000 C   0  0  0  0  0  0  0  0  0  0  0  0
    2.2484   -0.4757    0.0000 C   0  0  0  0  0  0  0  0  0  0  0  0
   -2.7046   -0.5148    0.0000 C   0  0  2  0  0  0  0  0  0  0  0  0
   -2.2745    0.3715    0.0000 C   0  0  0  0  0  0  0  0  0  0  0  0
   -2.8089   -1.3360    0.0000 C   0  0  0  0  0  0  0  0  0  0  0  0
    3.0696   -0.4888    0.0000 O   0  0  0  0  0  0  0  0  0  0  0  0
   -2.8740    0.2998    0.0000 O   0  0  0  0  0  0  0  0  0  0  0  0
   -3.5388   -0.4888    0.0000 C   0  0  0  0  0  0  0  0  0  0  0  0
  2  1  1  1  0  0  0
  2  3  1  0  0  0  0
  2  4  1  0  0  0  0
  2  5  1  0  0  0  0
  3  6  1  0  0  0  0
  3  7  1  0  0  0  0
  3  8  1  6  0  0  0
  4  9  1  6  0  0  0
  4 10  1  0  0  0  0
  5 11  1  0  0  0  0
  5 12  1  1  0  0  0
  6 13  2  0  0  0  0
  6 14  1  0  0  0  0
  7 15  1  0  0  0  0
 10 16  1  0  0  0  0
 11 17  1  6  0  0  0
 13 18  1  0  0  0  0
 16 19  1  0  0  0  0
 16 20  1  6  0  0  0
 17 21  1  0  0  0  0
 18 22  2  0  0  0  0
 19 23  1  6  0  0  0
 19 24  1  0  0  0  0
 11 16  1  0  0  0  0
 12 14  1  0  0  0  0
 15 18  1  0  0  0  0
 19 21  1  0  0  0  0
M  END

>  <name>
Fluoxymesterone

>  <ROTATABLE_BONDCOUNT>
0

>  <HBDScore>
0.5

>  <dipole>
3.03

>  <logD>
2.38

>  <MPOScore>
5.3100000000000005

>  <logDScore>
0.81

>  <MW>
336.447

>  <charge_dist(7.4)>
-0.00

>  <CNS>
FALSE

>  <ArRings>
0

>  <HBD>
2

>  <BALABAN_INDEX>
1.63

>  <bpKa>
-2.99

>  <TPSAScore>
1.0

>  <MWScore>
1.0

>  <bpKaScore>
1.0

>  <logPScore>
1.0

>  <MPO_area>
78.58

>  <TPSA>
57.53

>  <logP>
2.38

$$$$

  Mrv1722703221715202D          

 30 32  0  0  0  0            999 V2000
    0.0000    0.0000    0.0000 F   0  0  0  0  0  0  0  0  0  0  0  0
   -0.1680    0.8077    0.0000 C   0  0  0  0  0  0  0  0  0  0  0  0
   -0.9499    1.0726    0.0000 C   0  0  0  0  0  0  0  0  0  0  0  0
    0.4394    1.3569    0.0000 C   0  0  0  0  0  0  0  0  0  0  0  0
   -1.1179    1.8803    0.0000 C   0  0  0  0  0  0  0  0  0  0  0  0
    0.2714    2.1646    0.0000 C   0  0  0  0  0  0  0  0  0  0  0  0
   -0.5105    2.4296    0.0000 C   0  0  0  0  0  0  0  0  0  0  0  0
   -0.6785    3.2373    0.0000 C   0  0  0  0  0  0  0  0  0  0  0  0
   -0.1292    3.8511    0.0000 C   0  0  0  0  0  0  0  0  0  0  0  0
   -1.4344    3.5861    0.0000 C   0  0  0  0  0  0  0  0  0  0  0  0
   -0.5428    4.5748    0.0000 C   0  0  0  0  0  0  0  0  0  0  0  0
    0.6849    3.8511    0.0000 C   0  0  0  0  0  0  0  0  0  0  0  0
   -1.3505    4.4068    0.0000 N   0  0  0  0  0  0  0  0  0  0  0  0
   -2.1582    3.1855    0.0000 C   0  0  0  0  0  0  0  0  0  0  0  0
   -0.1357    5.2855    0.0000 C   0  0  0  0  0  0  0  0  0  0  0  0
    1.0920    4.5619    0.0000 C   0  0  0  0  0  0  0  0  0  0  0  0
   -1.9643    4.9690    0.0000 C   0  0  0  0  0  0  0  0  0  0  0  0
   -2.8690    3.6055    0.0000 C   0  0  0  0  0  0  0  0  0  0  0  0
    0.6785    5.2855    0.0000 C   0  0  0  0  0  0  0  0  0  0  0  0
   -1.7963    5.7766    0.0000 C   0  0  0  0  0  0  0  0  0  0  0  0
   -2.7526    4.7299    0.0000 C   0  0  0  0  0  0  0  0  0  0  0  0
   -3.5926    3.2049    0.0000 C   0  0  1  0  0  0  0  0  0  0  0  0
   -3.6055    2.3908    0.0000 O   0  0  0  0  0  0  0  0  0  0  0  0
   -4.3034    3.6249    0.0000 C   0  0  0  0  0  0  0  0  0  0  0  0
   -5.0271    3.2243    0.0000 C   0  0  1  0  0  0  0  0  0  0  0  0
   -5.0400    2.4102    0.0000 O   0  0  0  0  0  0  0  0  0  0  0  0
   -5.7378    3.6443    0.0000 C   0  0  0  0  0  0  0  0  0  0  0  0
   -6.4616    3.2437    0.0000 C   0  0  0  0  0  0  0  0  0  0  0  0
   -6.4745    2.4296    0.0000 O   0  0  0  0  0  0  0  0  0  0  0  0
   -7.1723    3.6637    0.0000 O   0  0  0  0  0  0  0  0  0  0  0  0
  1  2  1  0  0  0  0
  2  3  2  0  0  0  0
  2  4  1  0  0  0  0
  3  5  1  0  0  0  0
  4  6  2  0  0  0  0
  5  7  2  0  0  0  0
  7  8  1  0  0  0  0
  8  9  1  0  0  0  0
  8 10  2  0  0  0  0
  9 11  2  0  0  0  0
  9 12  1  0  0  0  0
 10 13  1  0  0  0  0
 10 14  1  0  0  0  0
 11 15  1  0  0  0  0
 12 16  2  0  0  0  0
 13 17  1  0  0  0  0
 14 18  2  0  0  0  0
 15 19  2  0  0  0  0
 17 20  1  0  0  0  0
 17 21  1  0  0  0  0
 18 22  1  0  0  0  0
 22 23  1  1  0  0  0
 22 24  1  0  0  0  0
 24 25  1  0  0  0  0
 25 26  1  1  0  0  0
 25 27  1  0  0  0  0
 27 28  1  0  0  0  0
 28 29  2  0  0  0  0
 28 30  1  0  0  0  0
  6  7  1  0  0  0  0
 11 13  1  0  0  0  0
 16 19  1  0  0  0  0
M  END

>  <name>
Fluvastatin

>  <ROTATABLE_BONDCOUNT>
8

>  <HBDScore>
0.16666666666666674

>  <dipole>
12.38

>  <logD>
1.05

>  <MPOScore>
4.384002380952381

>  <logDScore>
1.0

>  <MW>
411.473

>  <charge_dist(7.4)>
-1.00

>  <CNS>
FALSE

>  <ArRings>
3

>  <HBD>
3

>  <BALABAN_INDEX>
1.70

>  <bpKa>
-2.84

>  <TPSAScore>
1.0

>  <MWScore>
0.6323357142857142

>  <bpKaScore>
1.0

>  <logPScore>
0.585

>  <MPO_area>
54.44

>  <TPSA>
82.69

>  <logP>
3.83

$$$$

  Mrv1722703221715202D          

  8  8  0  0  0  0            999 V2000
    0.0000    0.0000    0.0000 P   0  0  0  0  0  0  0  0  0  0  0  0
    0.7742   -0.2538    0.0000 O   0  0  0  0  0  0  0  0  0  0  0  0
   -0.2665   -0.7742    0.0000 O   0  0  0  0  0  0  0  0  0  0  0  0
    0.2538    0.7869    0.0000 O   0  0  0  0  0  0  0  0  0  0  0  0
   -0.7869    0.2665    0.0000 C   0  0  2  0  0  0  0  0  0  0  0  0
   -1.3389    0.8884    0.0000 O   0  0  0  0  0  0  0  0  0  0  0  0
   -1.5991    0.1079    0.0000 C   0  0  2  0  0  0  0  0  0  0  0  0
   -2.2210   -0.4315    0.0000 C   0  0  0  0  0  0  0  0  0  0  0  0
  1  2  2  0  0  0  0
  1  3  1  0  0  0  0
  1  4  1  0  0  0  0
  5  1  1  1  0  0  0
  5  6  1  0  0  0  0
  5  7  1  0  0  0  0
  7  8  1  1  0  0  0
  6  7  1  0  0  0  0
M  END

>  <name>
Fosfomycin

>  <ROTATABLE_BONDCOUNT>
1

>  <HBDScore>
0.5

>  <dipole>
3.02

>  <logD>
-3.18

>  <MPOScore>
5.5

>  <logDScore>
1.0

>  <MW>
138.059

>  <charge_dist(7.4)>
-1.43

>  <CNS>
FALSE

>  <ArRings>
0

>  <HBD>
2

>  <BALABAN_INDEX>
2.39

>  <bpKa>
-4.31

>  <TPSAScore>
1.0

>  <MWScore>
1.0

>  <bpKaScore>
1.0

>  <logPScore>
1.0

>  <MPO_area>
83.33

>  <TPSA>
70.06

>  <logP>
-0.74

$$$$

  Mrv1722703221715202D          

 39 41  0  0  0  0            999 V2000
    0.0000    0.0000    0.0000 P   0  0  0  0  0  0  0  0  0  0  0  0
    0.2216    0.8017    0.0000 O   0  0  0  0  0  0  0  0  0  0  0  0
   -0.2347   -0.7887    0.0000 O   0  0  0  0  0  0  0  0  0  0  0  0
   -0.8017    0.2347    0.0000 C   0  0  0  0  0  0  0  0  0  0  0  0
    0.7887   -0.2216    0.0000 C   0  0  0  0  0  0  0  0  0  0  0  0
    0.3324   -1.3753    0.0000 C   0  0  0  0  0  0  0  0  0  0  0  0
   -1.4014   -0.3324    0.0000 C   0  0  0  0  0  0  0  0  0  0  0  0
    1.3753    0.3585    0.0000 C   0  0  0  0  0  0  0  0  0  0  0  0
    0.0978   -2.1639    0.0000 O   0  0  0  0  0  0  0  0  0  0  0  0
    1.1276   -1.1667    0.0000 C   0  0  0  0  0  0  0  0  0  0  0  0
   -1.2058   -1.1276    0.0000 O   0  0  0  0  0  0  0  0  0  0  0  0
   -2.2031   -0.0978    0.0000 N   0  0  0  0  0  0  0  0  0  0  0  0
    2.1639    0.1369    0.0000 C   0  0  0  0  0  0  0  0  0  0  0  0
    0.6648   -2.7506    0.0000 C   0  0  0  0  0  0  0  0  0  0  0  0
    1.6947   -1.7534    0.0000 C   0  0  0  0  0  0  0  0  0  0  0  0
    1.3492   -0.3650    0.0000 C   0  0  0  0  0  0  0  0  0  0  0  0
   -2.4964    0.6844    0.0000 C   0  0  2  0  0  0  0  0  0  0  0  0
   -2.8614   -0.5996    0.0000 C   0  0  0  0  0  0  0  0  0  0  0  0
    2.7506    0.7170    0.0000 C   0  0  0  0  0  0  0  0  0  0  0  0
    1.4600   -2.5420    0.0000 O   0  0  0  0  0  0  0  0  0  0  0  0
    0.4302   -3.5392    0.0000 C   0  0  0  0  0  0  0  0  0  0  0  0
   -2.0401    1.3753    0.0000 C   0  0  0  0  0  0  0  0  0  0  0  0
   -3.3307    0.6583    0.0000 C   0  0  0  0  0  0  0  0  0  0  0  0
   -3.5523   -0.1303    0.0000 C   0  0  1  0  0  0  0  0  0  0  0  0
    3.5392    0.4954    0.0000 C   0  0  0  0  0  0  0  0  0  0  0  0
    0.9972   -4.1259    0.0000 C   0  0  0  0  0  0  0  0  0  0  0  0
   -1.2189    1.3231    0.0000 O   0  0  0  0  0  0  0  0  0  0  0  0
   -2.4117    2.1249    0.0000 O   0  0  0  0  0  0  0  0  0  0  0  0
   -4.3344   -0.4106    0.0000 C   0  0  0  0  0  0  0  0  0  0  0  0
    4.1259    1.0755    0.0000 C   0  0  0  0  0  0  0  0  0  0  0  0
    3.7348   -0.2998    0.0000 C   0  0  0  0  0  0  0  0  0  0  0  0
   -4.9732    0.1303    0.0000 C   0  0  0  0  0  0  0  0  0  0  0  0
   -4.4844   -1.2189    0.0000 C   0  0  0  0  0  0  0  0  0  0  0  0
    4.9145    0.8538    0.0000 C   0  0  0  0  0  0  0  0  0  0  0  0
    4.5235   -0.5215    0.0000 C   0  0  0  0  0  0  0  0  0  0  0  0
   -5.7554   -0.1499    0.0000 C   0  0  0  0  0  0  0  0  0  0  0  0
   -5.2665   -1.4992    0.0000 C   0  0  0  0  0  0  0  0  0  0  0  0
    5.1101    0.0587    0.0000 C   0  0  0  0  0  0  0  0  0  0  0  0
   -5.9053   -0.9582    0.0000 C   0  0  0  0  0  0  0  0  0  0  0  0
  1  2  2  0  0  0  0
  1  3  1  0  0  0  0
  1  4  1  0  0  0  0
  1  5  1  0  0  0  0
  3  6  1  0  0  0  0
  4  7  1  0  0  0  0
  5  8  1  0  0  0  0
  6  9  1  0  0  0  0
  6 10  1  0  0  0  0
  7 11  2  0  0  0  0
  7 12  1  0  0  0  0
  8 13  1  0  0  0  0
  9 14  1  0  0  0  0
 10 15  1  0  0  0  0
 10 16  1  0  0  0  0
 12 17  1  0  0  0  0
 12 18  1  0  0  0  0
 13 19  1  0  0  0  0
 14 20  2  0  0  0  0
 14 21  1  0  0  0  0
 17 22  1  1  0  0  0
 17 23  1  0  0  0  0
 18 24  1  0  0  0  0
 19 25  1  0  0  0  0
 21 26  1  0  0  0  0
 22 27  2  0  0  0  0
 22 28  1  0  0  0  0
 24 29  1  6  0  0  0
 25 30  2  0  0  0  0
 25 31  1  0  0  0  0
 29 32  1  0  0  0  0
 29 33  1  0  0  0  0
 30 34  1  0  0  0  0
 31 35  2  0  0  0  0
 32 36  1  0  0  0  0
 33 37  1  0  0  0  0
 34 38  2  0  0  0  0
 36 39  1  0  0  0  0
 23 24  1  0  0  0  0
 35 38  1  0  0  0  0
 37 39  1  0  0  0  0
M  END

>  <name>
Fosinopril

>  <ROTATABLE_BONDCOUNT>
15

>  <HBDScore>
0.8333333333333334

>  <dipole>
7.20

>  <logD>
2.40

>  <MPOScore>
2.959666666666667

>  <logDScore>
0.8

>  <MW>
563.672

>  <charge_dist(7.4)>
-1.00

>  <CNS>
FALSE

>  <ArRings>
1

>  <HBD>
1

>  <BALABAN_INDEX>
1.63

>  <bpKa>
-4.43

>  <TPSAScore>
0.3263333333333336

>  <MWScore>
0.0

>  <bpKaScore>
1.0

>  <logPScore>
0.0

>  <MPO_area>
29.35

>  <TPSA>
110.21

>  <logP>
5.62

$$$$

  Mrv1722703221715202D          

 16 17  0  0  0  0            999 V2000
    0.0000    0.0000    0.0000 O   0  0  0  0  0  0  0  0  0  0  0  0
   -0.0786    0.8381    0.0000 N   0  3  0  0  0  0  0  0  0  0  0  0
   -0.8381    1.1916    0.0000 O   0  5  0  0  0  0  0  0  0  0  0  0
    0.5958    1.3226    0.0000 C   0  0  0  0  0  0  0  0  0  0  0  0
    1.3750    1.0607    0.0000 O   0  0  0  0  0  0  0  0  0  0  0  0
    0.6024    2.1607    0.0000 C   0  0  0  0  0  0  0  0  0  0  0  0
    1.8660    1.7351    0.0000 C   0  0  0  0  0  0  0  0  0  0  0  0
    1.3881    2.4094    0.0000 C   0  0  0  0  0  0  0  0  0  0  0  0
    2.6910    1.7285    0.0000 C   0  0  0  0  0  0  0  0  0  0  0  0
    3.0903    1.0083    0.0000 N   0  0  0  0  0  0  0  0  0  0  0  0
    3.9153    1.0018    0.0000 N   0  0  0  0  0  0  0  0  0  0  0  0
    4.4064    1.6761    0.0000 C   0  0  0  0  0  0  0  0  0  0  0  0
    4.3867    0.3274    0.0000 C   0  0  0  0  0  0  0  0  0  0  0  0
    4.1576    2.4749    0.0000 O   0  0  0  0  0  0  0  0  0  0  0  0
    5.1856    1.4142    0.0000 O   0  0  0  0  0  0  0  0  0  0  0  0
    5.1724    0.5761    0.0000 C   0  0  0  0  0  0  0  0  0  0  0  0
  1  2  2  0  0  0  0
  2  3  1  0  0  0  0
  2  4  1  0  0  0  0
  4  5  1  0  0  0  0
  4  6  2  0  0  0  0
  5  7  1  0  0  0  0
  6  8  1  0  0  0  0
  7  9  1  0  0  0  0
  9 10  2  3  0  0  0
 10 11  1  0  0  0  0
 11 12  1  0  0  0  0
 11 13  1  0  0  0  0
 12 14  2  0  0  0  0
 12 15  1  0  0  0  0
 13 16  1  0  0  0  0
  7  8  2  0  0  0  0
 15 16  1  0  0  0  0
M  CHG  2   2   1   3  -1
M  END

>  <name>
Furazolidone

>  <ROTATABLE_BONDCOUNT>
3

>  <HBDScore>
1.0

>  <dipole>
11.34

>  <logD>
0.87

>  <MPOScore>
5.727333333333333

>  <logDScore>
1.0

>  <MW>
225.160

>  <charge_dist(7.4)>
0.00

>  <CNS>
FALSE

>  <ArRings>
1

>  <HBD>
0

>  <BALABAN_INDEX>
1.48

>  <bpKa>
-2.41

>  <TPSAScore>
0.7273333333333332

>  <MWScore>
1.0

>  <bpKaScore>
1.0

>  <logPScore>
1.0

>  <MPO_area>
90.91

>  <TPSA>
98.18

>  <logP>
0.87

$$$$

  Mrv1722703221715202D          

 21 22  0  0  0  0            999 V2000
    0.0000    0.0000    0.0000 Cl  0  0  0  0  0  0  0  0  0  0  0  0
   -0.3196    0.7606    0.0000 C   0  0  0  0  0  0  0  0  0  0  0  0
    0.1726    1.4190    0.0000 C   0  0  0  0  0  0  0  0  0  0  0  0
   -1.1377    0.8693    0.0000 C   0  0  0  0  0  0  0  0  0  0  0  0
    0.9779    1.3231    0.0000 S   0  0  0  0  0  0  0  0  0  0  0  0
   -0.1470    2.1795    0.0000 C   0  0  0  0  0  0  0  0  0  0  0  0
   -1.4573    1.6299    0.0000 C   0  0  0  0  0  0  0  0  0  0  0  0
    0.8693    0.5177    0.0000 O   0  0  0  0  0  0  0  0  0  0  0  0
    1.0738    2.1412    0.0000 O   0  0  0  0  0  0  0  0  0  0  0  0
    1.7833    1.2272    0.0000 N   0  0  0  0  0  0  0  0  0  0  0  0
   -0.9652    2.2882    0.0000 C   0  0  0  0  0  0  0  0  0  0  0  0
   -2.2754    1.7385    0.0000 N   0  0  0  0  0  0  0  0  0  0  0  0
   -1.2847    3.0488    0.0000 C   0  0  0  0  0  0  0  0  0  0  0  0
   -2.7804    1.0930    0.0000 C   0  0  0  0  0  0  0  0  0  0  0  0
   -2.1028    3.1575    0.0000 O   0  0  0  0  0  0  0  0  0  0  0  0
   -0.7926    3.7072    0.0000 O   0  0  0  0  0  0  0  0  0  0  0  0
   -3.5985    1.2016    0.0000 C   0  0  0  0  0  0  0  0  0  0  0  0
   -4.1674    0.6136    0.0000 O   0  0  0  0  0  0  0  0  0  0  0  0
   -3.9948    1.9239    0.0000 C   0  0  0  0  0  0  0  0  0  0  0  0
   -4.9152    0.9715    0.0000 C   0  0  0  0  0  0  0  0  0  0  0  0
   -4.8065    1.7769    0.0000 C   0  0  0  0  0  0  0  0  0  0  0  0
  1  2  1  0  0  0  0
  2  3  2  0  0  0  0
  2  4  1  0  0  0  0
  3  5  1  0  0  0  0
  3  6  1  0  0  0  0
  4  7  2  0  0  0  0
  5  8  2  0  0  0  0
  5  9  2  0  0  0  0
  5 10  1  0  0  0  0
  6 11  2  0  0  0  0
  7 12  1  0  0  0  0
 11 13  1  0  0  0  0
 12 14  1  0  0  0  0
 13 15  2  0  0  0  0
 13 16  1  0  0  0  0
 14 17  1  0  0  0  0
 17 18  1  0  0  0  0
 17 19  2  0  0  0  0
 18 20  1  0  0  0  0
 19 21  1  0  0  0  0
  7 11  1  0  0  0  0
 20 21  2  0  0  0  0
M  END

>  <name>
Furosemide

>  <ROTATABLE_BONDCOUNT>
5

>  <HBDScore>
0.16666666666666674

>  <dipole>
11.42

>  <logD>
-1.25

>  <MPOScore>
4.166666666666667

>  <logDScore>
1.0

>  <MW>
330.74

>  <charge_dist(7.4)>
-1.00

>  <CNS>
FALSE

>  <ArRings>
2

>  <HBD>
3

>  <BALABAN_INDEX>
1.87

>  <bpKa>
-1.52

>  <TPSAScore>
0.0

>  <MWScore>
1.0

>  <bpKaScore>
1.0

>  <logPScore>
1.0

>  <MPO_area>
52.78

>  <TPSA>
122.63

>  <logP>
1.75

$$$$

  Mrv1722703221715202D          

 27 30  0  0  0  0            999 V2000
    0.0000    0.0000    0.0000 F   0  0  0  0  0  0  0  0  0  0  0  0
    0.4768    0.6701    0.0000 C   0  0  0  0  0  0  0  0  0  0  0  0
    0.1353    1.4305    0.0000 C   0  0  0  0  0  0  0  0  0  0  0  0
    1.2887    0.5864    0.0000 C   0  0  0  0  0  0  0  0  0  0  0  0
   -0.6895    1.5272    0.0000 N   0  0  0  0  0  0  0  0  0  0  0  0
    0.6121    2.1006    0.0000 C   0  0  0  0  0  0  0  0  0  0  0  0
    1.7656    1.2565    0.0000 C   0  0  0  0  0  0  0  0  0  0  0  0
   -1.0310    2.2875    0.0000 C   0  0  0  0  0  0  0  0  0  0  0  0
   -1.1792    0.8699    0.0000 C   0  0  0  0  0  0  0  0  0  0  0  0
    0.2706    2.8610    0.0000 O   0  0  0  0  0  0  0  0  0  0  0  0
    1.4240    2.0168    0.0000 C   0  0  0  0  0  0  0  0  0  0  0  0
    2.5774    1.1727    0.0000 C   0  0  0  0  0  0  0  0  0  0  0  0
   -1.8558    2.3841    0.0000 C   0  0  1  0  0  0  0  0  0  0  0  0
   -2.0040    0.9666    0.0000 C   0  0  0  0  0  0  0  0  0  0  0  0
    0.7475    3.5311    0.0000 C   0  0  0  0  0  0  0  0  0  0  0  0
    1.9009    2.6870    0.0000 N   0  0  0  0  0  0  0  0  0  0  0  0
    2.9061    0.4253    0.0000 O   0  0  0  0  0  0  0  0  0  0  0  0
    3.0543    1.8429    0.0000 C   0  0  0  0  0  0  0  0  0  0  0  0
   -2.3455    1.7269    0.0000 N   0  0  0  0  0  0  0  0  0  0  0  0
   -2.1973    3.1445    0.0000 C   0  0  0  0  0  0  0  0  0  0  0  0
    2.7128    2.6032    0.0000 C   0  0  0  0  0  0  0  0  0  0  0  0
    1.5593    3.4474    0.0000 C   0  0  0  0  0  0  0  0  0  0  0  0
    3.8662    1.7591    0.0000 C   0  0  0  0  0  0  0  0  0  0  0  0
    0.8892    3.9370    0.0000 C   0  0  0  0  0  0  0  0  0  0  0  0
    1.6431    4.2721    0.0000 C   0  0  0  0  0  0  0  0  0  0  0  0
    4.3430    2.4292    0.0000 O   0  0  0  0  0  0  0  0  0  0  0  0
    4.1948    1.0117    0.0000 O   0  0  0  0  0  0  0  0  0  0  0  0
  1  2  1  0  0  0  0
  2  3  2  0  0  0  0
  2  4  1  0  0  0  0
  3  5  1  0  0  0  0
  3  6  1  0  0  0  0
  4  7  2  0  0  0  0
  5  8  1  0  0  0  0
  5  9  1  0  0  0  0
  6 10  1  0  0  0  0
  6 11  2  0  0  0  0
  7 12  1  0  0  0  0
  8 13  1  0  0  0  0
  9 14  1  0  0  0  0
 10 15  1  0  0  0  0
 11 16  1  0  0  0  0
 12 17  2  0  0  0  0
 12 18  1  0  0  0  0
 13 19  1  0  0  0  0
 13 20  1  1  0  0  0
 16 21  1  0  0  0  0
 16 22  1  0  0  0  0
 18 23  1  0  0  0  0
 22 24  1  0  0  0  0
 22 25  1  0  0  0  0
 23 26  2  0  0  0  0
 23 27  1  0  0  0  0
  7 11  1  0  0  0  0
 14 19  1  0  0  0  0
 18 21  2  0  0  0  0
 24 25  1  0  0  0  0
M  END

>  <name>
Gatifloxacin

>  <ROTATABLE_BONDCOUNT>
4

>  <HBDScore>
0.5

>  <dipole>
16.16

>  <logD>
-0.58

>  <MPOScore>
5.025

>  <logDScore>
1.0

>  <MW>
375.400

>  <charge_dist(7.4)>
-0.01

>  <CNS>
FALSE

>  <ArRings>
2

>  <HBD>
2

>  <BALABAN_INDEX>
1.63

>  <bpKa>
8.73

>  <TPSAScore>
1.0

>  <MWScore>
0.8900000000000001

>  <bpKaScore>
0.6349999999999998

>  <logPScore>
1.0

>  <MPO_area>
71.21

>  <TPSA>
82.11

>  <logP>
-0.58

$$$$

  Mrv1722703221715202D          

 31 34  0  0  0  0            999 V2000
    0.0000    0.0000    0.0000 Cl  0  0  0  0  0  0  0  0  0  0  0  0
   -0.7932   -0.2267    0.0000 C   0  0  0  0  0  0  0  0  0  0  0  0
   -0.9885   -1.0199    0.0000 C   0  0  0  0  0  0  0  0  0  0  0  0
   -1.3977    0.3463    0.0000 C   0  0  0  0  0  0  0  0  0  0  0  0
   -0.3966   -1.5803    0.0000 F   0  0  0  0  0  0  0  0  0  0  0  0
   -1.7817   -1.2466    0.0000 C   0  0  0  0  0  0  0  0  0  0  0  0
   -2.1909    0.1196    0.0000 C   0  0  0  0  0  0  0  0  0  0  0  0
   -2.3861   -0.6736    0.0000 C   0  0  0  0  0  0  0  0  0  0  0  0
   -2.7954    0.6926    0.0000 N   0  0  0  0  0  0  0  0  0  0  0  0
   -2.6127    1.4984    0.0000 C   0  0  0  0  0  0  0  0  0  0  0  0
   -1.8321    1.7376    0.0000 N   0  0  0  0  0  0  0  0  0  0  0  0
   -3.2172    2.0713    0.0000 C   0  0  0  0  0  0  0  0  0  0  0  0
   -1.6495    2.5435    0.0000 C   0  0  0  0  0  0  0  0  0  0  0  0
   -3.0346    2.8772    0.0000 C   0  0  0  0  0  0  0  0  0  0  0  0
   -4.0104    1.8447    0.0000 C   0  0  0  0  0  0  0  0  0  0  0  0
   -2.2539    3.1164    0.0000 N   0  0  0  0  0  0  0  0  0  0  0  0
   -3.6390    3.4501    0.0000 C   0  0  0  0  0  0  0  0  0  0  0  0
   -4.6149    2.4176    0.0000 C   0  0  0  0  0  0  0  0  0  0  0  0
   -4.4322    3.2234    0.0000 C   0  0  0  0  0  0  0  0  0  0  0  0
   -5.4081    2.1909    0.0000 O   0  0  0  0  0  0  0  0  0  0  0  0
   -5.0367    3.7964    0.0000 O   0  0  0  0  0  0  0  0  0  0  0  0
   -5.6033    1.3977    0.0000 C   0  0  0  0  0  0  0  0  0  0  0  0
   -4.8541    4.6023    0.0000 C   0  0  0  0  0  0  0  0  0  0  0  0
   -6.3966    1.1710    0.0000 C   0  0  0  0  0  0  0  0  0  0  0  0
   -6.5918    0.3778    0.0000 C   0  0  0  0  0  0  0  0  0  0  0  0
   -7.3850    0.1511    0.0000 N   0  0  0  0  0  0  0  0  0  0  0  0
   -7.9894    0.7240    0.0000 C   0  0  0  0  0  0  0  0  0  0  0  0
   -7.5802   -0.6422    0.0000 C   0  0  0  0  0  0  0  0  0  0  0  0
   -8.7827    0.4974    0.0000 C   0  0  0  0  0  0  0  0  0  0  0  0
   -8.3735   -0.8688    0.0000 C   0  0  0  0  0  0  0  0  0  0  0  0
   -8.9779   -0.2959    0.0000 O   0  0  0  0  0  0  0  0  0  0  0  0
  1  2  1  0  0  0  0
  2  3  2  0  0  0  0
  2  4  1  0  0  0  0
  3  5  1  0  0  0  0
  3  6  1  0  0  0  0
  4  7  2  0  0  0  0
  6  8  2  0  0  0  0
  7  9  1  0  0  0  0
  9 10  1  0  0  0  0
 10 11  2  0  0  0  0
 10 12  1  0  0  0  0
 11 13  1  0  0  0  0
 12 14  2  0  0  0  0
 12 15  1  0  0  0  0
 13 16  2  0  0  0  0
 14 17  1  0  0  0  0
 15 18  2  0  0  0  0
 17 19  2  0  0  0  0
 18 20  1  0  0  0  0
 19 21  1  0  0  0  0
 20 22  1  0  0  0  0
 21 23  1  0  0  0  0
 22 24  1  0  0  0  0
 24 25  1  0  0  0  0
 25 26  1  0  0  0  0
 26 27  1  0  0  0  0
 26 28  1  0  0  0  0
 27 29  1  0  0  0  0
 28 30  1  0  0  0  0
 29 31  1  0  0  0  0
  7  8  1  0  0  0  0
 14 16  1  0  0  0  0
 18 19  1  0  0  0  0
 30 31  1  0  0  0  0
M  END

>  <name>
Gefitinib

>  <ROTATABLE_BONDCOUNT>
8

>  <HBDScore>
0.8333333333333334

>  <dipole>
8.59

>  <logD>
3.64

>  <MPOScore>
4.017547619047619

>  <logDScore>
0.17999999999999994

>  <MW>
446.91

>  <charge_dist(7.4)>
0.22

>  <CNS>
FALSE

>  <ArRings>
3

>  <HBD>
1

>  <BALABAN_INDEX>
1.12

>  <bpKa>
6.85

>  <TPSAScore>
1.0

>  <MWScore>
0.3792142857142855

>  <bpKaScore>
1.0

>  <logPScore>
0.625

>  <MPO_area>
47.32

>  <TPSA>
68.74

>  <logP>
3.75

$$$$

  Mrv1722703221715202D          

 28 31  0  0  0  0            999 V2000
    0.0000    0.0000    0.0000 F   0  0  0  0  0  0  0  0  0  0  0  0
    0.5699    0.5958    0.0000 C   0  0  0  0  0  0  0  0  0  0  0  0
    0.3368    1.3923    0.0000 C   0  0  0  0  0  0  0  0  0  0  0  0
    1.3600    0.4015    0.0000 C   0  0  0  0  0  0  0  0  0  0  0  0
    0.9067    1.9881    0.0000 N   0  0  0  0  0  0  0  0  0  0  0  0
   -0.4663    1.5996    0.0000 N   0  0  0  0  0  0  0  0  0  0  0  0
    1.9299    0.9973    0.0000 C   0  0  0  0  0  0  0  0  0  0  0  0
    1.6967    1.7939    0.0000 C   0  0  0  0  0  0  0  0  0  0  0  0
   -1.1074    1.0815    0.0000 C   0  0  0  0  0  0  0  0  0  0  0  0
   -0.7771    2.3702    0.0000 C   0  0  0  0  0  0  0  0  0  0  0  0
    2.7199    0.8030    0.0000 C   0  0  0  0  0  0  0  0  0  0  0  0
    2.2666    2.3896    0.0000 N   0  0  0  0  0  0  0  0  0  0  0  0
   -1.8133    1.5284    0.0000 C   0  0  0  0  0  0  0  0  0  0  0  0
   -1.6060    2.3249    0.0000 C   0  0  1  0  0  0  0  0  0  0  0  0
    2.9401    0.0194    0.0000 O   0  0  0  0  0  0  0  0  0  0  0  0
    3.2898    1.3988    0.0000 C   0  0  0  0  0  0  0  0  0  0  0  0
    3.0567    2.1954    0.0000 C   0  0  0  0  0  0  0  0  0  0  0  0
    2.0335    3.1862    0.0000 C   0  0  0  0  0  0  0  0  0  0  0  0
   -2.5839    1.2304    0.0000 N   0  0  0  0  0  0  0  0  0  0  0  0
   -2.1371    2.9660    0.0000 C   0  0  0  0  0  0  0  0  0  0  0  0
    4.0799    1.2045    0.0000 C   0  0  0  0  0  0  0  0  0  0  0  0
    1.4377    3.7691    0.0000 C   0  0  0  0  0  0  0  0  0  0  0  0
    2.2277    3.9892    0.0000 C   0  0  0  0  0  0  0  0  0  0  0  0
   -2.7070    0.4209    0.0000 O   0  0  0  0  0  0  0  0  0  0  0  0
   -1.8586    3.7431    0.0000 N   0  0  0  0  0  0  0  0  0  0  0  0
    4.6498    1.8003    0.0000 O   0  0  0  0  0  0  0  0  0  0  0  0
    4.3001    0.4209    0.0000 O   0  0  0  0  0  0  0  0  0  0  0  0
   -3.4776    0.1231    0.0000 C   0  0  0  0  0  0  0  0  0  0  0  0
  1  2  1  0  0  0  0
  2  3  2  0  0  0  0
  2  4  1  0  0  0  0
  3  5  1  0  0  0  0
  3  6  1  0  0  0  0
  4  7  2  0  0  0  0
  5  8  2  0  0  0  0
  6  9  1  0  0  0  0
  6 10  1  0  0  0  0
  7 11  1  0  0  0  0
  8 12  1  0  0  0  0
  9 13  1  0  0  0  0
 10 14  1  0  0  0  0
 11 15  2  0  0  0  0
 11 16  1  0  0  0  0
 12 17  1  0  0  0  0
 12 18  1  0  0  0  0
 13 19  2  0  0  0  0
 14 20  1  1  0  0  0
 16 21  1  0  0  0  0
 18 22  1  0  0  0  0
 18 23  1  0  0  0  0
 19 24  1  0  0  0  0
 20 25  1  0  0  0  0
 21 26  2  0  0  0  0
 21 27  1  0  0  0  0
 24 28  1  0  0  0  0
  7  8  1  0  0  0  0
 13 14  1  0  0  0  0
 16 17  2  0  0  0  0
 22 23  1  0  0  0  0
M  END

>  <name>
Gemifloxacin

>  <ROTATABLE_BONDCOUNT>
5

>  <HBDScore>
0.5

>  <dipole>
12.73

>  <logD>
-0.91

>  <MPOScore>
3.675092857142857

>  <logDScore>
1.0

>  <MW>
389.387

>  <charge_dist(7.4)>
0.01

>  <CNS>
FALSE

>  <ArRings>
2

>  <HBD>
2

>  <BALABAN_INDEX>
1.45

>  <bpKa>
9.23

>  <TPSAScore>
0.0

>  <MWScore>
0.7900928571428572

>  <bpKaScore>
0.3849999999999998

>  <logPScore>
1.0

>  <MPO_area>
39.63

>  <TPSA>
121.35

>  <logP>
-0.91

$$$$

  Mrv1722703221715202D          

 34 36  0  0  1  0            999 V2000
    0.0000    0.0000    0.0000 S   0  0  0  0  0  0  0  0  0  0  0  0
   -0.0194   -0.8135    0.0000 O   0  0  0  0  0  0  0  0  0  0  0  0
    0.0065    0.8264    0.0000 O   0  0  0  0  0  0  0  0  0  0  0  0
    0.8135   -0.0065    0.0000 N   0  0  0  0  0  0  0  0  0  0  0  0
   -0.8264    0.0194    0.0000 C   0  0  0  0  0  0  0  0  0  0  0  0
    1.2268    0.7038    0.0000 C   0  0  0  0  0  0  0  0  0  0  0  0
   -1.2526   -0.6779    0.0000 C   0  0  0  0  0  0  0  0  0  0  0  0
   -1.2332    0.7425    0.0000 C   0  0  0  0  0  0  0  0  0  0  0  0
    0.8200    1.4270    0.0000 O   0  0  0  0  0  0  0  0  0  0  0  0
    2.0403    0.6973    0.0000 N   0  0  0  0  0  0  0  0  0  0  0  0
   -2.0791   -0.6586    0.0000 C   0  0  0  0  0  0  0  0  0  0  0  0
   -2.0597    0.7619    0.0000 C   0  0  0  0  0  0  0  0  0  0  0  0
    2.4536    1.4076    0.0000 C   0  0  1  0  0  0  0  0  0  0  0  0
   -2.4859    0.0646    0.0000 C   0  0  0  0  0  0  0  0  0  0  0  0
    3.2671    1.4011    0.0000 C   0  0  0  0  0  0  0  0  0  0  0  0
    2.0468    2.1307    0.0000 C   0  0  0  0  0  0  0  0  0  0  0  0
   -3.3123    0.0839    0.0000 C   0  0  0  0  0  0  0  0  0  0  0  0
    3.6803    2.1114    0.0000 C   0  0  0  0  0  0  0  0  0  0  0  0
    2.4600    2.8410    0.0000 C   0  0  0  0  0  0  0  0  0  0  0  0
   -3.7191    0.8071    0.0000 C   0  0  0  0  0  0  0  0  0  0  0  0
    3.2736    2.8345    0.0000 C   0  0  1  0  0  0  0  0  0  0  0  0
   -4.5455    0.8264    0.0000 N   0  0  0  0  0  0  0  0  0  0  0  0
    3.6868    3.5448    0.0000 C   0  0  0  0  0  0  0  0  0  0  0  0
   -4.9523    1.5496    0.0000 C   0  0  0  0  0  0  0  0  0  0  0  0
   -4.5391    2.2598    0.0000 O   0  0  0  0  0  0  0  0  0  0  0  0
   -5.7788    1.5690    0.0000 N   0  0  0  0  0  0  0  0  0  0  0  0
   -6.2566    2.2469    0.0000 C   0  0  0  0  0  0  0  0  0  0  0  0
   -6.2760    0.9169    0.0000 C   0  0  0  0  0  0  0  0  0  0  0  0
   -5.9983    3.0282    0.0000 O   0  0  0  0  0  0  0  0  0  0  0  0
   -7.0443    2.0081    0.0000 C   0  0  0  0  0  0  0  0  0  0  0  0
   -7.0572    1.1880    0.0000 C   0  0  0  0  0  0  0  0  0  0  0  0
   -7.7094    2.5052    0.0000 C   0  0  0  0  0  0  0  0  0  0  0  0
   -7.7352    0.7232    0.0000 C   0  0  0  0  0  0  0  0  0  0  0  0
   -8.4713    2.1889    0.0000 C   0  0  0  0  0  0  0  0  0  0  0  0
  1  2  2  0  0  0  0
  1  3  2  0  0  0  0
  1  4  1  0  0  0  0
  1  5  1  0  0  0  0
  4  6  1  0  0  0  0
  5  7  2  0  0  0  0
  5  8  1  0  0  0  0
  6  9  2  0  0  0  0
  6 10  1  0  0  0  0
  7 11  1  0  0  0  0
  8 12  2  0  0  0  0
 13 10  1  6  0  0  0
 11 14  2  0  0  0  0
 13 15  1  0  0  0  0
 13 16  1  0  0  0  0
 14 17  1  0  0  0  0
 15 18  1  0  0  0  0
 16 19  1  0  0  0  0
 17 20  1  0  0  0  0
 18 21  1  0  0  0  0
 20 22  1  0  0  0  0
 21 23  1  1  0  0  0
 22 24  1  0  0  0  0
 24 25  2  0  0  0  0
 24 26  1  0  0  0  0
 26 27  1  0  0  0  0
 26 28  1  0  0  0  0
 27 29  2  0  0  0  0
 27 30  1  0  0  0  0
 28 31  1  0  0  0  0
 30 32  1  0  0  0  0
 31 33  1  0  0  0  0
 32 34  1  0  0  0  0
 12 14  1  0  0  0  0
 19 21  1  0  0  0  0
 30 31  2  0  0  0  0
M  END

>  <name>
Glimepiride

>  <ROTATABLE_BONDCOUNT>
6

>  <HBDScore>
0.16666666666666674

>  <dipole>
5.51

>  <logD>
2.18

>  <MPOScore>
3.083666666666667

>  <logDScore>
0.9099999999999999

>  <MW>
490.62

>  <charge_dist(7.4)>
-1.00

>  <CNS>
FALSE

>  <ArRings>
1

>  <HBD>
3

>  <BALABAN_INDEX>
1.33

>  <bpKa>
-3.68

>  <TPSAScore>
0.0

>  <MWScore>
0.06699999999999995

>  <bpKaScore>
1.0

>  <logPScore>
0.94

>  <MPO_area>
32.64

>  <TPSA>
124.68

>  <logP>
3.12

$$$$

  Mrv1722703221715202D          

 31 33  0  0  0  0            999 V2000
    0.0000    0.0000    0.0000 S   0  0  0  0  0  0  0  0  0  0  0  0
    0.0066    0.8381    0.0000 O   0  0  0  0  0  0  0  0  0  0  0  0
   -0.0197   -0.8250    0.0000 O   0  0  0  0  0  0  0  0  0  0  0  0
   -0.8381    0.0197    0.0000 N   0  0  0  0  0  0  0  0  0  0  0  0
    0.8250   -0.0066    0.0000 C   0  0  0  0  0  0  0  0  0  0  0  0
   -1.2702   -0.6875    0.0000 C   0  0  0  0  0  0  0  0  0  0  0  0
    1.2440    0.7137    0.0000 C   0  0  0  0  0  0  0  0  0  0  0  0
    1.2244   -0.7268    0.0000 C   0  0  0  0  0  0  0  0  0  0  0  0
   -0.8708   -1.4077    0.0000 O   0  0  0  0  0  0  0  0  0  0  0  0
   -2.1083   -0.6678    0.0000 N   0  0  0  0  0  0  0  0  0  0  0  0
    2.0689    0.7071    0.0000 C   0  0  0  0  0  0  0  0  0  0  0  0
    2.0493   -0.7333    0.0000 C   0  0  0  0  0  0  0  0  0  0  0  0
   -2.5404   -1.3749    0.0000 C   0  0  0  0  0  0  0  0  0  0  0  0
    2.4684   -0.0131    0.0000 C   0  0  0  0  0  0  0  0  0  0  0  0
   -3.3785   -1.3553    0.0000 C   0  0  0  0  0  0  0  0  0  0  0  0
   -2.1410   -2.0952    0.0000 C   0  0  0  0  0  0  0  0  0  0  0  0
    3.2933   -0.0197    0.0000 C   0  0  0  0  0  0  0  0  0  0  0  0
   -3.8106   -2.0624    0.0000 C   0  0  0  0  0  0  0  0  0  0  0  0
   -2.5731   -2.8023    0.0000 C   0  0  0  0  0  0  0  0  0  0  0  0
    3.6927   -0.7398    0.0000 C   0  0  0  0  0  0  0  0  0  0  0  0
   -3.4112   -2.7826    0.0000 C   0  0  0  0  0  0  0  0  0  0  0  0
    4.5177   -0.7464    0.0000 N   0  0  0  0  0  0  0  0  0  0  0  0
    4.9171   -1.4666    0.0000 C   0  0  0  0  0  0  0  0  0  0  0  0
    4.4850   -2.1737    0.0000 O   0  0  0  0  0  0  0  0  0  0  0  0
    5.7421   -1.4732    0.0000 C   0  0  0  0  0  0  0  0  0  0  0  0
    6.1414   -2.1934    0.0000 N   0  0  0  0  0  0  0  0  0  0  0  0
    6.1611   -0.7529    0.0000 C   0  0  0  0  0  0  0  0  0  0  0  0
    6.9664   -2.1999    0.0000 C   0  0  0  0  0  0  0  0  0  0  0  0
    6.9861   -0.7595    0.0000 N   0  0  0  0  0  0  0  0  0  0  0  0
    7.3855   -1.4797    0.0000 C   0  0  0  0  0  0  0  0  0  0  0  0
    8.2104   -1.4862    0.0000 C   0  0  0  0  0  0  0  0  0  0  0  0
  1  2  2  0  0  0  0
  1  3  2  0  0  0  0
  1  4  1  0  0  0  0
  1  5  1  0  0  0  0
  4  6  1  0  0  0  0
  5  7  2  0  0  0  0
  5  8  1  0  0  0  0
  6  9  2  0  0  0  0
  6 10  1  0  0  0  0
  7 11  1  0  0  0  0
  8 12  2  0  0  0  0
 10 13  1  0  0  0  0
 11 14  2  0  0  0  0
 13 15  1  0  0  0  0
 13 16  1  0  0  0  0
 14 17  1  0  0  0  0
 15 18  1  0  0  0  0
 16 19  1  0  0  0  0
 17 20  1  0  0  0  0
 18 21  1  0  0  0  0
 20 22  1  0  0  0  0
 22 23  1  0  0  0  0
 23 24  2  0  0  0  0
 23 25  1  0  0  0  0
 25 26  2  0  0  0  0
 25 27  1  0  0  0  0
 26 28  1  0  0  0  0
 27 29  2  0  0  0  0
 28 30  2  0  0  0  0
 30 31  1  0  0  0  0
 12 14  1  0  0  0  0
 19 21  1  0  0  0  0
 29 30  1  0  0  0  0
M  END

>  <name>
Glipizide

>  <ROTATABLE_BONDCOUNT>
6

>  <HBDScore>
0.16666666666666674

>  <dipole>
7.05

>  <logD>
0.49

>  <MPOScore>
3.5556666666666663

>  <logDScore>
1.0

>  <MW>
445.54

>  <charge_dist(7.4)>
-1.00

>  <CNS>
FALSE

>  <ArRings>
2

>  <HBD>
3

>  <BALABAN_INDEX>
1.26

>  <bpKa>
0.06

>  <TPSAScore>
0.0

>  <MWScore>
0.3889999999999999

>  <bpKaScore>
1.0

>  <logPScore>
1.0

>  <MPO_area>
40.9

>  <TPSA>
130.15

>  <logP>
1.43

$$$$

  Mrv1722703221715202D          

 33 35  0  0  0  0            999 V2000
    0.0000    0.0000    0.0000 Cl  0  0  0  0  0  0  0  0  0  0  0  0
    0.3928   -0.7201    0.0000 C   0  0  0  0  0  0  0  0  0  0  0  0
    1.2177   -0.7332    0.0000 C   0  0  0  0  0  0  0  0  0  0  0  0
   -0.0458   -1.4206    0.0000 C   0  0  0  0  0  0  0  0  0  0  0  0
    1.6105   -1.4534    0.0000 C   0  0  0  0  0  0  0  0  0  0  0  0
    0.3470   -2.1407    0.0000 C   0  0  0  0  0  0  0  0  0  0  0  0
    1.1718   -2.1539    0.0000 C   0  0  0  0  0  0  0  0  0  0  0  0
    2.4353   -1.4664    0.0000 C   0  0  0  0  0  0  0  0  0  0  0  0
    1.5646   -2.8740    0.0000 O   0  0  0  0  0  0  0  0  0  0  0  0
    2.8609   -0.7529    0.0000 O   0  0  0  0  0  0  0  0  0  0  0  0
    2.8281   -2.1866    0.0000 N   0  0  0  0  0  0  0  0  0  0  0  0
    1.1260   -3.5745    0.0000 C   0  0  0  0  0  0  0  0  0  0  0  0
    3.6530   -2.1997    0.0000 C   0  0  0  0  0  0  0  0  0  0  0  0
    4.0458   -2.9198    0.0000 C   0  0  0  0  0  0  0  0  0  0  0  0
    4.8707   -2.9329    0.0000 C   0  0  0  0  0  0  0  0  0  0  0  0
    5.2963   -2.2193    0.0000 C   0  0  0  0  0  0  0  0  0  0  0  0
    5.2635   -3.6530    0.0000 C   0  0  0  0  0  0  0  0  0  0  0  0
    6.1211   -2.2324    0.0000 C   0  0  0  0  0  0  0  0  0  0  0  0
    6.0884   -3.6661    0.0000 C   0  0  0  0  0  0  0  0  0  0  0  0
    6.5139   -2.9525    0.0000 C   0  0  0  0  0  0  0  0  0  0  0  0
    7.3388   -2.9656    0.0000 S   0  0  0  0  0  0  0  0  0  0  0  0
    7.3519   -2.1277    0.0000 O   0  0  0  0  0  0  0  0  0  0  0  0
    7.3126   -3.7905    0.0000 O   0  0  0  0  0  0  0  0  0  0  0  0
    8.1637   -2.9787    0.0000 N   0  0  0  0  0  0  0  0  0  0  0  0
    8.5892   -2.2651    0.0000 C   0  0  0  0  0  0  0  0  0  0  0  0
    8.1833   -1.5319    0.0000 O   0  0  0  0  0  0  0  0  0  0  0  0
    9.4141   -2.2783    0.0000 N   0  0  0  0  0  0  0  0  0  0  0  0
    9.8396   -1.5646    0.0000 C   0  0  0  0  0  0  0  0  0  0  0  0
   10.6645   -1.5778    0.0000 C   0  0  0  0  0  0  0  0  0  0  0  0
    9.4337   -0.8314    0.0000 C   0  0  0  0  0  0  0  0  0  0  0  0
   11.0900   -0.8641    0.0000 C   0  0  0  0  0  0  0  0  0  0  0  0
    9.8593   -0.1178    0.0000 C   0  0  0  0  0  0  0  0  0  0  0  0
   10.6841   -0.1310    0.0000 C   0  0  0  0  0  0  0  0  0  0  0  0
  1  2  1  0  0  0  0
  2  3  2  0  0  0  0
  2  4  1  0  0  0  0
  3  5  1  0  0  0  0
  4  6  2  0  0  0  0
  5  7  2  0  0  0  0
  5  8  1  0  0  0  0
  7  9  1  0  0  0  0
  8 10  2  0  0  0  0
  8 11  1  0  0  0  0
  9 12  1  0  0  0  0
 11 13  1  0  0  0  0
 13 14  1  0  0  0  0
 14 15  1  0  0  0  0
 15 16  2  0  0  0  0
 15 17  1  0  0  0  0
 16 18  1  0  0  0  0
 17 19  2  0  0  0  0
 18 20  2  0  0  0  0
 20 21  1  0  0  0  0
 21 22  2  0  0  0  0
 21 23  2  0  0  0  0
 21 24  1  0  0  0  0
 24 25  1  0  0  0  0
 25 26  2  0  0  0  0
 25 27  1  0  0  0  0
 27 28  1  0  0  0  0
 28 29  1  0  0  0  0
 28 30  1  0  0  0  0
 29 31  1  0  0  0  0
 30 32  1  0  0  0  0
 31 33  1  0  0  0  0
  6  7  1  0  0  0  0
 19 20  1  0  0  0  0
 32 33  1  0  0  0  0
M  END

>  <name>
Glyburide

>  <ROTATABLE_BONDCOUNT>
7

>  <HBDScore>
0.16666666666666674

>  <dipole>
9.20

>  <logD>
2.85

>  <MPOScore>
2.6028571428571428

>  <logDScore>
0.575

>  <MW>
494.00

>  <charge_dist(7.4)>
-1.00

>  <CNS>
FALSE

>  <ArRings>
2

>  <HBD>
3

>  <BALABAN_INDEX>
1.22

>  <bpKa>
-1.36

>  <TPSAScore>
0.21333333333333349

>  <MWScore>
0.04285714285714293

>  <bpKaScore>
1.0

>  <logPScore>
0.605

>  <MPO_area>
19.35

>  <TPSA>
113.60

>  <logP>
3.79

$$$$

  Mrv1722703221715202D          

 23 25  0  0  0  0            999 V2000
    0.0000    0.0000    0.0000 O   0  0  0  0  0  0  0  0  0  0  0  0
   -0.0845    0.8253    0.0000 C   0  0  0  0  0  0  0  0  0  0  0  0
   -0.8383    1.1762    0.0000 O   0  0  0  0  0  0  0  0  0  0  0  0
    0.5849    1.3062    0.0000 C   0  0  0  0  0  0  0  0  0  0  0  0
   -1.5207    0.7084    0.0000 C   0  0  0  0  0  0  0  0  0  0  0  0
    1.2542    1.7871    0.0000 O   0  0  0  0  0  0  0  0  0  0  0  0
    1.0527    0.6369    0.0000 C   0  0  0  0  0  0  0  0  0  0  0  0
    0.1040    1.9885    0.0000 C   0  0  0  0  0  0  0  0  0  0  0  0
   -2.3070    0.9812    0.0000 C   0  0  0  0  0  0  0  0  0  0  0  0
   -1.5401   -0.1105    0.0000 C   0  0  0  0  0  0  0  0  0  0  0  0
    0.7019   -0.1040    0.0000 C   0  0  0  0  0  0  0  0  0  0  0  0
    1.8651    0.7213    0.0000 C   0  0  0  0  0  0  0  0  0  0  0  0
   -0.7278    2.0081    0.0000 C   0  0  0  0  0  0  0  0  0  0  0  0
    0.3639    2.7749    0.0000 C   0  0  0  0  0  0  0  0  0  0  0  0
   -2.8074    0.3249    0.0000 N   0  3  0  0  0  0  0  0  0  0  0  0
   -2.3330   -0.3509    0.0000 C   0  0  0  0  0  0  0  0  0  0  0  0
    1.1697   -0.7733    0.0000 C   0  0  0  0  0  0  0  0  0  0  0  0
    2.3330    0.0520    0.0000 C   0  0  0  0  0  0  0  0  0  0  0  0
   -0.9812    2.8008    0.0000 C   0  0  0  0  0  0  0  0  0  0  0  0
   -0.3054    3.2753    0.0000 C   0  0  0  0  0  0  0  0  0  0  0  0
   -3.4312   -0.2145    0.0000 C   0  0  0  0  0  0  0  0  0  0  0  0
   -3.4182    0.8903    0.0000 C   0  0  0  0  0  0  0  0  0  0  0  0
    1.9820   -0.6888    0.0000 C   0  0  0  0  0  0  0  0  0  0  0  0
  1  2  2  0  0  0  0
  2  3  1  0  0  0  0
  2  4  1  0  0  0  0
  3  5  1  0  0  0  0
  4  6  1  0  0  0  0
  4  7  1  0  0  0  0
  4  8  1  0  0  0  0
  5  9  1  0  0  0  0
  5 10  1  0  0  0  0
  7 11  2  0  0  0  0
  7 12  1  0  0  0  0
  8 13  1  0  0  0  0
  8 14  1  0  0  0  0
  9 15  1  0  0  0  0
 10 16  1  0  0  0  0
 11 17  1  0  0  0  0
 12 18  2  0  0  0  0
 13 19  1  0  0  0  0
 14 20  1  0  0  0  0
 15 21  1  0  0  0  0
 15 22  1  0  0  0  0
 17 23  2  0  0  0  0
 15 16  1  0  0  0  0
 18 23  1  0  0  0  0
 19 20  1  0  0  0  0
M  CHG  1  15   1
M  END

>  <name>
Glycopyrrolate

>  <ROTATABLE_BONDCOUNT>
5

>  <HBDScore>
0.8333333333333334

>  <dipole>
20.71

>  <logD>
-1.41

>  <MPOScore>
5.833333333333333

>  <logDScore>
1.0

>  <MW>
318.436

>  <charge_dist(7.4)>
-0.00

>  <CNS>
FALSE

>  <ArRings>
1

>  <HBD>
1

>  <BALABAN_INDEX>
1.64

>  <bpKa>
-4.32

>  <TPSAScore>
1.0

>  <MWScore>
1.0

>  <bpKaScore>
1.0

>  <logPScore>
1.0

>  <MPO_area>
94.44

>  <TPSA>
46.53

>  <logP>
-1.41

$$$$

  Mrv1722703221715202D          

 14 14  0  0  0  0            999 V2000
    0.0000    0.0000    0.0000 O   0  0  0  0  0  0  0  0  0  0  0  0
    0.7689    0.2884    0.0000 C   0  0  0  0  0  0  0  0  0  0  0  0
   -0.6407    0.5382    0.0000 C   0  0  0  0  0  0  0  0  0  0  0  0
    1.3968   -0.2371    0.0000 C   0  0  0  0  0  0  0  0  0  0  0  0
    0.9034    1.1085    0.0000 C   0  0  0  0  0  0  0  0  0  0  0  0
   -1.4225    0.2627    0.0000 C   0  0  1  0  0  0  0  0  0  0  0  0
    1.2494   -1.0444    0.0000 O   0  0  0  0  0  0  0  0  0  0  0  0
    2.1657    0.0513    0.0000 C   0  0  0  0  0  0  0  0  0  0  0  0
    1.6723    1.3968    0.0000 C   0  0  0  0  0  0  0  0  0  0  0  0
   -1.5698   -0.5447    0.0000 O   0  0  0  0  0  0  0  0  0  0  0  0
   -2.0632    0.8010    0.0000 C   0  0  0  0  0  0  0  0  0  0  0  0
    0.4678   -1.3199    0.0000 C   0  0  0  0  0  0  0  0  0  0  0  0
    2.3003    0.8714    0.0000 C   0  0  0  0  0  0  0  0  0  0  0  0
   -2.8450    0.5254    0.0000 O   0  0  0  0  0  0  0  0  0  0  0  0
  1  2  1  0  0  0  0
  1  3  1  0  0  0  0
  2  4  2  0  0  0  0
  2  5  1  0  0  0  0
  3  6  1  0  0  0  0
  4  7  1  0  0  0  0
  4  8  1  0  0  0  0
  5  9  2  0  0  0  0
  6 10  1  1  0  0  0
  6 11  1  0  0  0  0
  7 12  1  0  0  0  0
  8 13  2  0  0  0  0
 11 14  1  0  0  0  0
  9 13  1  0  0  0  0
M  END

>  <name>
Guaifenesin

>  <ROTATABLE_BONDCOUNT>
5

>  <HBDScore>
0.5

>  <dipole>
2.42

>  <logD>
0.34

>  <MPOScore>
5.5

>  <logDScore>
1.0

>  <MW>
198.218

>  <charge_dist(7.4)>
-0.00

>  <CNS>
FALSE

>  <ArRings>
1

>  <HBD>
2

>  <BALABAN_INDEX>
2.26

>  <bpKa>
-2.97

>  <TPSAScore>
1.0

>  <MWScore>
1.0

>  <bpKaScore>
1.0

>  <logPScore>
1.0

>  <MPO_area>
83.33

>  <TPSA>
58.92

>  <logP>
0.34

$$$$

  Mrv1722703221715202D          

 15 16  0  0  0  0            999 V2000
    0.0000    0.0000    0.0000 O   0  0  0  0  0  0  0  0  0  0  0  0
   -0.7775    0.2916    0.0000 C   0  0  0  0  0  0  0  0  0  0  0  0
    0.5054    0.6545    0.0000 C   0  0  2  0  0  0  0  0  0  0  0  0
   -0.7516    1.1210    0.0000 O   0  0  0  0  0  0  0  0  0  0  0  0
   -1.5227    0.6609    0.0000 C   0  0  0  0  0  0  0  0  0  0  0  0
   -0.7322   -0.5248    0.0000 C   0  0  0  0  0  0  0  0  0  0  0  0
    0.0453    1.3478    0.0000 C   0  0  0  0  0  0  0  0  0  0  0  0
    1.3218    0.6285    0.0000 C   0  0  0  0  0  0  0  0  0  0  0  0
   -2.2160    0.2138    0.0000 C   0  0  0  0  0  0  0  0  0  0  0  0
   -1.4255   -0.9720    0.0000 C   0  0  0  0  0  0  0  0  0  0  0  0
    1.6976   -0.0972    0.0000 N   0  0  0  0  0  0  0  0  0  0  0  0
   -2.1706   -0.6026    0.0000 C   0  0  0  0  0  0  0  0  0  0  0  0
    2.5141   -0.1231    0.0000 C   0  0  0  0  0  0  0  0  0  0  0  0
    2.8899   -0.8488    0.0000 N   0  0  0  0  0  0  0  0  0  0  0  0
    2.9482    0.5767    0.0000 N   0  0  0  0  0  0  0  0  0  0  0  0
  1  2  1  0  0  0  0
  1  3  1  0  0  0  0
  2  4  1  0  0  0  0
  2  5  1  0  0  0  0
  2  6  1  0  0  0  0
  3  7  1  0  0  0  0
  3  8  1  6  0  0  0
  5  9  1  0  0  0  0
  6 10  1  0  0  0  0
  8 11  1  0  0  0  0
  9 12  1  0  0  0  0
 11 13  2  0  0  0  0
 13 14  1  0  0  0  0
 13 15  1  0  0  0  0
  4  7  1  0  0  0  0
 10 12  1  0  0  0  0
M  END

>  <name>
Guanadrel

>  <ROTATABLE_BONDCOUNT>
2

>  <HBDScore>
0.5

>  <dipole>
3.70

>  <logD>
-1.79

>  <MPOScore>
4.5

>  <logDScore>
1.0

>  <MW>
213.281

>  <charge_dist(7.4)>
1.00

>  <CNS>
FALSE

>  <ArRings>
0

>  <HBD>
2

>  <BALABAN_INDEX>
1.66

>  <bpKa>
12.56

>  <TPSAScore>
1.0

>  <MWScore>
1.0

>  <bpKaScore>
0.0

>  <logPScore>
1.0

>  <MPO_area>
58.33

>  <TPSA>
82.86

>  <logP>
0.62

$$$$

  Mrv1722703221715202D          

 14 14  0  0  0  0            999 V2000
    0.0000    0.0000    0.0000 N   0  0  0  0  0  0  0  0  0  0  0  0
   -0.6543    0.5300    0.0000 C   0  0  0  0  0  0  0  0  0  0  0  0
    0.7655    0.3075    0.0000 C   0  0  0  0  0  0  0  0  0  0  0  0
   -1.4330    0.2355    0.0000 N   0  0  0  0  0  0  0  0  0  0  0  0
   -0.5365    1.3610    0.0000 N   0  0  0  0  0  0  0  0  0  0  0  0
    1.4068   -0.2094    0.0000 C   0  0  0  0  0  0  0  0  0  0  0  0
    2.1724    0.0981    0.0000 N   0  0  0  0  0  0  0  0  0  0  0  0
    2.1854    0.9357    0.0000 C   0  0  0  0  0  0  0  0  0  0  0  0
    2.7416   -0.4973    0.0000 C   0  0  0  0  0  0  0  0  0  0  0  0
    2.7809    1.5180    0.0000 C   0  0  0  0  0  0  0  0  0  0  0  0
    3.5661   -0.5104    0.0000 C   0  0  0  0  0  0  0  0  0  0  0  0
    3.6054    1.5050    0.0000 C   0  0  0  0  0  0  0  0  0  0  0  0
    4.1615    0.0720    0.0000 C   0  0  0  0  0  0  0  0  0  0  0  0
    4.1746    0.9095    0.0000 C   0  0  0  0  0  0  0  0  0  0  0  0
  1  2  2  0  0  0  0
  1  3  1  0  0  0  0
  2  4  1  0  0  0  0
  2  5  1  0  0  0  0
  3  6  1  0  0  0  0
  6  7  1  0  0  0  0
  7  8  1  0  0  0  0
  7  9  1  0  0  0  0
  8 10  1  0  0  0  0
  9 11  1  0  0  0  0
 10 12  1  0  0  0  0
 11 13  1  0  0  0  0
 12 14  1  0  0  0  0
 13 14  1  0  0  0  0
M  END

>  <name>
Guanethidine

>  <ROTATABLE_BONDCOUNT>
3

>  <HBDScore>
0.5

>  <dipole>
2.60

>  <logD>
-3.24

>  <MPOScore>
4.5

>  <logDScore>
1.0

>  <MW>
198.314

>  <charge_dist(7.4)>
1.97

>  <CNS>
FALSE

>  <ArRings>
0

>  <HBD>
2

>  <BALABAN_INDEX>
2.08

>  <bpKa>
11.77

>  <TPSAScore>
1.0

>  <MWScore>
1.0

>  <bpKaScore>
0.0

>  <logPScore>
1.0

>  <MPO_area>
58.33

>  <TPSA>
67.64

>  <logP>
0.74

$$$$

  Mrv1722703221715202D          

 27 30  0  0  0  0            999 V2000
    0.0000    0.0000    0.0000 S   0  0  0  0  0  0  0  0  0  0  0  0
   -0.8330   -0.0195    0.0000 C   0  0  0  0  0  0  0  0  0  0  0  0
    0.2734   -0.7680    0.0000 C   0  0  2  0  0  0  0  0  0  0  0  0
   -1.0674   -0.8070    0.0000 C   0  0  2  0  0  0  0  0  0  0  0  0
   -1.6531    0.1302    0.0000 C   0  0  0  0  0  0  0  0  0  0  0  0
   -0.7810    0.8135    0.0000 C   0  0  0  0  0  0  0  0  0  0  0  0
   -0.3840   -1.2691    0.0000 N   0  0  0  0  0  0  0  0  0  0  0  0
    0.7745   -1.4123    0.0000 C   0  0  2  0  0  0  0  0  0  0  0  0
   -1.8484   -1.0804    0.0000 C   0  0  0  0  0  0  0  0  0  0  0  0
    0.1171   -1.9134    0.0000 C   0  0  0  0  0  0  0  0  0  0  0  0
    1.5880   -1.5099    0.0000 N   0  0  0  0  0  0  0  0  0  0  0  0
   -1.9980   -1.8874    0.0000 O   0  0  0  0  0  0  0  0  0  0  0  0
   -2.4862   -0.5402    0.0000 O   0  0  0  0  0  0  0  0  0  0  0  0
    0.0065   -2.7270    0.0000 O   0  0  0  0  0  0  0  0  0  0  0  0
    2.1477   -0.8981    0.0000 C   0  0  0  0  0  0  0  0  0  0  0  0
    1.9850   -2.2258    0.0000 C   0  0  0  0  0  0  0  0  0  0  0  0
    1.9850   -0.0781    0.0000 O   0  0  0  0  0  0  0  0  0  0  0  0
    2.8896   -1.2431    0.0000 C   0  0  0  0  0  0  0  0  0  0  0  0
    2.7920   -2.0631    0.0000 N   0  0  0  0  0  0  0  0  0  0  0  0
    2.2193   -3.0068    0.0000 C   0  0  0  0  0  0  0  0  0  0  0  0
    1.2170   -2.5447    0.0000 C   0  0  0  0  0  0  0  0  0  0  0  0
    3.6056   -0.8330    0.0000 C   0  0  0  0  0  0  0  0  0  0  0  0
    4.3085   -1.2496    0.0000 C   0  0  0  0  0  0  0  0  0  0  0  0
    3.6121    0.0000    0.0000 C   0  0  0  0  0  0  0  0  0  0  0  0
    5.0243   -0.8396    0.0000 C   0  0  0  0  0  0  0  0  0  0  0  0
    4.3280    0.4100    0.0000 C   0  0  0  0  0  0  0  0  0  0  0  0
    5.0309   -0.0065    0.0000 C   0  0  0  0  0  0  0  0  0  0  0  0
  1  2  1  0  0  0  0
  3  1  1  1  0  0  0
  2  4  1  0  0  0  0
  2  5  1  0  0  0  0
  2  6  1  0  0  0  0
  3  7  1  0  0  0  0
  3  8  1  0  0  0  0
  4  9  1  6  0  0  0
  7 10  1  0  0  0  0
  8 11  1  1  0  0  0
  9 12  2  0  0  0  0
  9 13  1  0  0  0  0
 10 14  2  0  0  0  0
 11 15  1  0  0  0  0
 11 16  1  0  0  0  0
 15 17  2  0  0  0  0
 15 18  1  0  0  0  0
 16 19  1  0  0  0  0
 16 20  1  0  0  0  0
 16 21  1  0  0  0  0
 18 22  1  0  0  0  0
 22 23  2  0  0  0  0
 22 24  1  0  0  0  0
 23 25  1  0  0  0  0
 24 26  2  0  0  0  0
 25 27  2  0  0  0  0
  4  7  1  0  0  0  0
  8 10  1  0  0  0  0
 18 19  1  0  0  0  0
 26 27  1  0  0  0  0
M  END

>  <name>
Hetacillin

>  <ROTATABLE_BONDCOUNT>
3

>  <HBDScore>
0.5

>  <dipole>
5.96

>  <logD>
-1.99

>  <MPOScore>
5.2895

>  <logDScore>
1.0

>  <MW>
389.47

>  <charge_dist(7.4)>
-1.00

>  <CNS>
FALSE

>  <ArRings>
1

>  <HBD>
2

>  <BALABAN_INDEX>
1.56

>  <bpKa>
4.79

>  <TPSAScore>
1.0

>  <MWScore>
0.7894999999999999

>  <bpKaScore>
1.0

>  <logPScore>
1.0

>  <MPO_area>
78.07

>  <TPSA>
89.95

>  <logP>
0.06

$$$$

  Mrv1722703221715202D          

 23 25  0  0  0  0            999 V2000
    0.0000    0.0000    0.0000 O   0  0  0  0  0  0  0  0  0  0  0  0
    0.3377   -0.7468    0.0000 C   0  0  2  0  0  0  0  0  0  0  0  0
   -0.4221   -1.0844    0.0000 C   0  0  0  0  0  0  0  0  0  0  0  0
    1.0844   -0.3961    0.0000 C   0  0  0  0  0  0  0  0  0  0  0  0
    0.6754   -1.4936    0.0000 C   0  0  0  0  0  0  0  0  0  0  0  0
   -1.1039   -0.5974    0.0000 C   0  0  0  0  0  0  0  0  0  0  0  0
   -0.5065   -1.9027    0.0000 C   0  0  0  0  0  0  0  0  0  0  0  0
    1.1559    0.4351    0.0000 C   0  0  0  0  0  0  0  0  0  0  0  0
    1.7533   -0.8702    0.0000 C   0  0  0  0  0  0  0  0  0  0  0  0
    1.4936   -1.5650    0.0000 N   0  0  0  0  0  0  0  0  0  0  0  0
   -1.8637   -0.9351    0.0000 C   0  0  0  0  0  0  0  0  0  0  0  0
   -1.2663   -2.2403    0.0000 C   0  0  0  0  0  0  0  0  0  0  0  0
    1.9027    0.7857    0.0000 C   0  0  0  0  0  0  0  0  0  0  0  0
    2.5001   -0.5195    0.0000 C   0  0  0  0  0  0  0  0  0  0  0  0
    1.9676   -0.8831    0.0000 C   0  0  0  0  0  0  0  0  0  0  0  0
    1.8312   -2.3117    0.0000 C   0  0  0  0  0  0  0  0  0  0  0  0
   -1.9481   -1.7533    0.0000 C   0  0  0  0  0  0  0  0  0  0  0  0
    2.5715    0.3117    0.0000 C   0  0  0  0  0  0  0  0  0  0  0  0
    2.7858   -0.9546    0.0000 C   0  0  0  0  0  0  0  0  0  0  0  0
    2.6494   -2.3832    0.0000 C   0  0  0  0  0  0  0  0  0  0  0  0
    3.1235   -1.7013    0.0000 N   0  3  0  0  0  0  0  0  0  0  0  0
    3.6949   -2.2858    0.0000 C   0  0  0  0  0  0  0  0  0  0  0  0
    3.7988   -1.2273    0.0000 C   0  0  0  0  0  0  0  0  0  0  0  0
  1  2  1  0  0  0  0
  2  3  1  1  0  0  0
  2  4  1  0  0  0  0
  2  5  1  0  0  0  0
  3  6  2  0  0  0  0
  3  7  1  0  0  0  0
  4  8  1  0  0  0  0
  4  9  1  0  0  0  0
  5 10  1  0  0  0  0
  6 11  1  0  0  0  0
  7 12  2  0  0  0  0
  8 13  1  0  0  0  0
  9 14  1  0  0  0  0
 10 15  1  0  0  0  0
 10 16  1  0  0  0  0
 11 17  2  0  0  0  0
 13 18  1  0  0  0  0
 15 19  1  0  0  0  0
 16 20  1  0  0  0  0
 19 21  1  0  0  0  0
 21 22  1  0  0  0  0
 21 23  1  0  0  0  0
 12 17  1  0  0  0  0
 14 18  1  0  0  0  0
 20 21  1  0  0  0  0
M  CHG  1  21   1
M  END

>  <name>
Hexocyclium

>  <ROTATABLE_BONDCOUNT>
4

>  <HBDScore>
0.8333333333333334

>  <dipole>
21.96

>  <logD>
-0.99

>  <MPOScore>
5.006833333333333

>  <logDScore>
1.0

>  <MW>
317.496

>  <charge_dist(7.4)>
0.00

>  <CNS>
FALSE

>  <ArRings>
1

>  <HBD>
1

>  <BALABAN_INDEX>
1.62

>  <bpKa>
4.95

>  <TPSAScore>
0.17349999999999996

>  <MWScore>
1.0

>  <bpKaScore>
1.0

>  <logPScore>
1.0

>  <MPO_area>
69.19

>  <TPSA>
23.47

>  <logP>
-0.99

$$$$

  Mrv1722703221715202D          

 12 13  0  0  0  0            999 V2000
    0.0000    0.0000    0.0000 N   0  0  0  0  0  0  0  0  0  0  0  0
    0.4574    0.6992    0.0000 N   0  0  0  0  0  0  0  0  0  0  0  0
    0.3594   -0.7384    0.0000 C   0  0  0  0  0  0  0  0  0  0  0  0
    1.2808    0.6469    0.0000 C   0  0  0  0  0  0  0  0  0  0  0  0
   -0.1111   -1.4245    0.0000 N   0  0  0  0  0  0  0  0  0  0  0  0
    1.1827   -0.7907    0.0000 C   0  0  0  0  0  0  0  0  0  0  0  0
    1.6402   -0.0915    0.0000 C   0  0  0  0  0  0  0  0  0  0  0  0
   -0.9475   -1.3592    0.0000 N   0  0  0  0  0  0  0  0  0  0  0  0
    1.5422   -1.5291    0.0000 C   0  0  0  0  0  0  0  0  0  0  0  0
    2.4635   -0.1438    0.0000 C   0  0  0  0  0  0  0  0  0  0  0  0
    2.3655   -1.5813    0.0000 C   0  0  0  0  0  0  0  0  0  0  0  0
    2.8229   -0.8822    0.0000 C   0  0  0  0  0  0  0  0  0  0  0  0
  1  2  2  0  0  0  0
  1  3  1  0  0  0  0
  2  4  1  0  0  0  0
  3  5  1  0  0  0  0
  3  6  2  0  0  0  0
  4  7  2  0  0  0  0
  5  8  1  0  0  0  0
  6  9  1  0  0  0  0
  7 10  1  0  0  0  0
  9 11  2  0  0  0  0
 10 12  2  0  0  0  0
  6  7  1  0  0  0  0
 11 12  1  0  0  0  0
M  END

>  <name>
Hydralazine

>  <ROTATABLE_BONDCOUNT>
1

>  <HBDScore>
0.5

>  <dipole>
6.82

>  <logD>
-0.73

>  <MPOScore>
5.06

>  <logDScore>
1.0

>  <MW>
160.180

>  <charge_dist(7.4)>
0.97

>  <CNS>
FALSE

>  <ArRings>
2

>  <HBD>
2

>  <BALABAN_INDEX>
1.83

>  <bpKa>
8.88

>  <TPSAScore>
1.0

>  <MWScore>
1.0

>  <bpKaScore>
0.5599999999999996

>  <logPScore>
1.0

>  <MPO_area>
72.33

>  <TPSA>
63.83

>  <logP>
0.75

$$$$

  Mrv1722703221715202D          

 26 29  0  0  0  0            999 V2000
    0.0000    0.0000    0.0000 O   0  0  0  0  0  0  0  0  0  0  0  0
    0.8184    0.1039    0.0000 C   0  0  0  0  0  0  0  0  0  0  0  0
    1.1432    0.8704    0.0000 C   0  0  0  0  0  0  0  0  0  0  0  0
    1.3056   -0.5586    0.0000 C   0  0  0  0  0  0  0  0  0  0  0  0
    1.9617    0.9743    0.0000 C   0  0  0  0  0  0  0  0  0  0  0  0
    2.1241   -0.4547    0.0000 C   0  0  0  0  0  0  0  0  0  0  0  0
    2.4488    0.3118    0.0000 C   0  0  1  0  0  0  0  0  0  0  0  0
    2.2865    1.7408    0.0000 C   0  0  0  0  0  0  0  0  0  0  0  0
    3.2673    0.4157    0.0000 C   0  0  2  0  0  0  0  0  0  0  0  0
    2.9360   -0.3508    0.0000 C   0  0  0  0  0  0  0  0  0  0  0  0
    3.1049    1.8448    0.0000 C   0  0  0  0  0  0  0  0  0  0  0  0
    3.7545   -0.2469    0.0000 C   0  0  2  0  0  0  0  0  0  0  0  0
    3.5920    1.1822    0.0000 C   0  0  2  0  0  0  0  0  0  0  0  0
    3.4167   -1.0003    0.0000 O   0  0  0  0  0  0  0  0  0  0  0  0
    4.5729   -0.1429    0.0000 C   0  0  0  0  0  0  0  0  0  0  0  0
    4.4105    1.2861    0.0000 C   0  0  2  0  0  0  0  0  0  0  0  0
    4.8977    0.6236    0.0000 C   0  0  2  0  0  0  0  0  0  0  0  0
    4.8847    1.9682    0.0000 C   0  0  0  0  0  0  0  0  0  0  0  0
    5.6772    0.8964    0.0000 C   0  0  2  0  0  0  0  0  0  0  0  0
    5.4563    0.0195    0.0000 C   0  0  0  0  0  0  0  0  0  0  0  0
    5.6707    1.7278    0.0000 C   0  0  0  0  0  0  0  0  0  0  0  0
    6.4956    1.0003    0.0000 O   0  0  0  0  0  0  0  0  0  0  0  0
    5.8525    0.0909    0.0000 C   0  0  0  0  0  0  0  0  0  0  0  0
    5.2355   -0.4677    0.0000 O   0  0  0  0  0  0  0  0  0  0  0  0
    6.6385   -0.1494    0.0000 C   0  0  0  0  0  0  0  0  0  0  0  0
    6.8139   -0.9549    0.0000 O   0  0  0  0  0  0  0  0  0  0  0  0
  1  2  2  0  0  0  0
  2  3  1  0  0  0  0
  2  4  1  0  0  0  0
  3  5  2  0  0  0  0
  4  6  1  0  0  0  0
  5  7  1  0  0  0  0
  5  8  1  0  0  0  0
  7  9  1  0  0  0  0
  7 10  1  1  0  0  0
  8 11  1  0  0  0  0
  9 12  1  1  0  0  0
  9 13  1  0  0  0  0
 12 14  1  1  0  0  0
 12 15  1  0  0  0  0
 13 16  1  0  0  0  0
 15 17  1  0  0  0  0
 16 18  1  1  0  0  0
 17 19  1  0  0  0  0
 17 20  1  1  0  0  0
 18 21  1  0  0  0  0
 19 22  1  6  0  0  0
 19 23  1  0  0  0  0
 23 24  2  0  0  0  0
 23 25  1  0  0  0  0
 25 26  1  0  0  0  0
  6  7  1  0  0  0  0
 13 11  1  6  0  0  0
 16 17  1  0  0  0  0
 19 21  1  0  0  0  0
M  END

>  <name>
Hydrocortisone

>  <ROTATABLE_BONDCOUNT>
2

>  <HBDScore>
0.16666666666666674

>  <dipole>
3.46

>  <logD>
1.28

>  <MPOScore>
4.988052380952381

>  <logDScore>
1.0

>  <MW>
362.466

>  <charge_dist(7.4)>
-0.00

>  <CNS>
FALSE

>  <ArRings>
0

>  <HBD>
3

>  <BALABAN_INDEX>
1.45

>  <bpKa>
-2.85

>  <TPSAScore>
0.8390000000000001

>  <MWScore>
0.9823857142857142

>  <bpKaScore>
1.0

>  <logPScore>
1.0

>  <MPO_area>
68.55

>  <TPSA>
94.83

>  <logP>
1.28

$$$$

  Mrv1722703221715202D          

 19 18  0  0  0  0            999 V2000
    0.0000    0.0000    0.0000 P   0  0  0  0  0  0  0  0  0  0  0  0
    0.1209    0.8142    0.0000 O   0  0  0  0  0  0  0  0  0  0  0  0
    0.8014   -0.1209    0.0000 O   0  0  0  0  0  0  0  0  0  0  0  0
   -0.7569    0.3307    0.0000 O   0  0  0  0  0  0  0  0  0  0  0  0
   -0.1335   -0.8014    0.0000 C   0  0  0  0  0  0  0  0  0  0  0  0
   -0.2671   -1.6029    0.0000 P   0  0  0  0  0  0  0  0  0  0  0  0
    0.6678   -0.9223    0.0000 O   0  0  0  0  0  0  0  0  0  0  0  0
   -0.9477   -0.6678    0.0000 C   0  0  0  0  0  0  0  0  0  0  0  0
   -0.4007   -2.4043    0.0000 O   0  0  0  0  0  0  0  0  0  0  0  0
   -1.0813   -1.4693    0.0000 O   0  0  0  0  0  0  0  0  0  0  0  0
    0.5343   -1.7237    0.0000 O   0  0  0  0  0  0  0  0  0  0  0  0
   -1.2467    0.1018    0.0000 C   0  0  0  0  0  0  0  0  0  0  0  0
   -2.0608    0.2354    0.0000 N   0  0  0  0  0  0  0  0  0  0  0  0
   -2.5824   -0.3944    0.0000 C   0  0  0  0  0  0  0  0  0  0  0  0
   -2.3598    1.0050    0.0000 C   0  0  0  0  0  0  0  0  0  0  0  0
   -3.3966   -0.2608    0.0000 C   0  0  0  0  0  0  0  0  0  0  0  0
   -3.9182   -0.8905    0.0000 C   0  0  0  0  0  0  0  0  0  0  0  0
   -4.7323   -0.7569    0.0000 C   0  0  0  0  0  0  0  0  0  0  0  0
   -5.2538   -1.3866    0.0000 C   0  0  0  0  0  0  0  0  0  0  0  0
  1  2  2  0  0  0  0
  1  3  1  0  0  0  0
  1  4  1  0  0  0  0
  1  5  1  0  0  0  0
  5  6  1  0  0  0  0
  5  7  1  0  0  0  0
  5  8  1  0  0  0  0
  6  9  2  0  0  0  0
  6 10  1  0  0  0  0
  6 11  1  0  0  0  0
  8 12  1  0  0  0  0
 12 13  1  0  0  0  0
 13 14  1  0  0  0  0
 13 15  1  0  0  0  0
 14 16  1  0  0  0  0
 16 17  1  0  0  0  0
 17 18  1  0  0  0  0
 18 19  1  0  0  0  0
M  END

>  <name>
Ibandronate

>  <ROTATABLE_BONDCOUNT>
9

>  <HBDScore>
0.0

>  <dipole>
1.57

>  <logD>
-4.86

>  <MPOScore>
3.035

>  <logDScore>
1.0

>  <MW>
319.231

>  <charge_dist(7.4)>
-1.94

>  <CNS>
FALSE

>  <ArRings>
0

>  <HBD>
5

>  <BALABAN_INDEX>
4.54

>  <bpKa>
9.93

>  <TPSAScore>
0.0

>  <MWScore>
1.0

>  <bpKaScore>
0.03500000000000014

>  <logPScore>
1.0

>  <MPO_area>
33.92

>  <TPSA>
138.53

>  <logP>
-2.48

$$$$

  Mrv1722703221715202D          

 33 37  0  0  0  0            999 V2000
    0.0000    0.0000    0.0000 O   0  0  0  0  0  0  0  0  0  0  0  0
    0.6911   -0.4327    0.0000 C   0  0  0  0  0  0  0  0  0  0  0  0
    0.6523   -1.2465    0.0000 N   0  0  0  0  0  0  0  0  0  0  0  0
    1.4080   -0.0452    0.0000 C   0  0  0  0  0  0  0  0  0  0  0  0
   -0.0775   -1.6211    0.0000 C   0  0  0  0  0  0  0  0  0  0  0  0
    1.3434   -1.6792    0.0000 C   0  0  0  0  0  0  0  0  0  0  0  0
    1.4338    0.7815    0.0000 C   0  0  0  0  0  0  0  0  0  0  0  0
   -0.1162   -2.4349    0.0000 C   0  0  1  0  0  0  0  0  0  0  0  0
    1.3047   -2.4930    0.0000 C   0  0  0  0  0  0  0  0  0  0  0  0
   -0.8461   -2.8095    0.0000 N   0  0  0  0  0  0  0  0  0  0  0  0
    0.5748   -2.8676    0.0000 C   0  0  0  0  0  0  0  0  0  0  0  0
   -1.5888   -2.4414    0.0000 N   0  0  0  0  0  0  0  0  0  0  0  0
   -0.9688   -3.6168    0.0000 C   0  0  0  0  0  0  0  0  0  0  0  0
   -2.1701   -3.0226    0.0000 C   0  0  0  0  0  0  0  0  0  0  0  0
   -0.4521   -4.2433    0.0000 N   0  0  0  0  0  0  0  0  0  0  0  0
   -1.7825   -3.7524    0.0000 C   0  0  0  0  0  0  0  0  0  0  0  0
   -2.9903   -2.8999    0.0000 C   0  0  0  0  0  0  0  0  0  0  0  0
   -0.7427   -5.0054    0.0000 C   0  0  0  0  0  0  0  0  0  0  0  0
   -2.0732   -4.5146    0.0000 C   0  0  0  0  0  0  0  0  0  0  0  0
   -3.3003   -2.1313    0.0000 C   0  0  0  0  0  0  0  0  0  0  0  0
   -3.5070   -3.5393    0.0000 C   0  0  0  0  0  0  0  0  0  0  0  0
   -1.5565   -5.1410    0.0000 N   0  0  0  0  0  0  0  0  0  0  0  0
   -2.8870   -4.6502    0.0000 N   0  0  0  0  0  0  0  0  0  0  0  0
   -4.1206   -2.0086    0.0000 C   0  0  0  0  0  0  0  0  0  0  0  0
   -4.3273   -3.4166    0.0000 C   0  0  0  0  0  0  0  0  0  0  0  0
   -4.6373   -2.6480    0.0000 C   0  0  0  0  0  0  0  0  0  0  0  0
   -5.4575   -2.5253    0.0000 O   0  0  0  0  0  0  0  0  0  0  0  0
   -5.7675   -1.7567    0.0000 C   0  0  0  0  0  0  0  0  0  0  0  0
   -5.2637   -1.1044    0.0000 C   0  0  0  0  0  0  0  0  0  0  0  0
   -6.5878   -1.6340    0.0000 C   0  0  0  0  0  0  0  0  0  0  0  0
   -5.5738   -0.3358    0.0000 C   0  0  0  0  0  0  0  0  0  0  0  0
   -6.8978   -0.8655    0.0000 C   0  0  0  0  0  0  0  0  0  0  0  0
   -6.3940   -0.2131    0.0000 C   0  0  0  0  0  0  0  0  0  0  0  0
  1  2  2  0  0  0  0
  2  3  1  0  0  0  0
  2  4  1  0  0  0  0
  3  5  1  0  0  0  0
  3  6  1  0  0  0  0
  4  7  2  0  0  0  0
  5  8  1  0  0  0  0
  6  9  1  0  0  0  0
  8 10  1  6  0  0  0
  8 11  1  0  0  0  0
 10 12  1  0  0  0  0
 10 13  1  0  0  0  0
 12 14  2  0  0  0  0
 13 15  2  0  0  0  0
 13 16  1  0  0  0  0
 14 17  1  0  0  0  0
 15 18  1  0  0  0  0
 16 19  2  0  0  0  0
 17 20  2  0  0  0  0
 17 21  1  0  0  0  0
 18 22  2  0  0  0  0
 19 23  1  0  0  0  0
 20 24  1  0  0  0  0
 21 25  2  0  0  0  0
 24 26  2  0  0  0  0
 26 27  1  0  0  0  0
 27 28  1  0  0  0  0
 28 29  2  0  0  0  0
 28 30  1  0  0  0  0
 29 31  1  0  0  0  0
 30 32  2  0  0  0  0
 31 33  2  0  0  0  0
  9 11  1  0  0  0  0
 14 16  1  0  0  0  0
 19 22  1  0  0  0  0
 25 26  1  0  0  0  0
 32 33  1  0  0  0  0
M  END

>  <name>
Ibrutinib

>  <ROTATABLE_BONDCOUNT>
5

>  <HBDScore>
0.8333333333333334

>  <dipole>
6.76

>  <logD>
3.63

>  <MPOScore>
3.8229500000000005

>  <logDScore>
0.18500000000000005

>  <MW>
440.507

>  <charge_dist(7.4)>
0.00

>  <CNS>
FALSE

>  <ArRings>
4

>  <HBD>
1

>  <BALABAN_INDEX>
1.18

>  <bpKa>
4.06

>  <TPSAScore>
0.6946666666666668

>  <MWScore>
0.42494999999999994

>  <bpKaScore>
1.0

>  <logPScore>
0.685

>  <MPO_area>
40.71

>  <TPSA>
99.16

>  <logP>
3.63

$$$$

  Mrv1722703221715202D          

 31 35  0  0  0  0            999 V2000
    0.0000    0.0000    0.0000 F   0  0  0  0  0  0  0  0  0  0  0  0
    0.6140    0.5552    0.0000 C   0  0  0  0  0  0  0  0  0  0  0  0
    1.3912    0.2939    0.0000 C   0  0  0  0  0  0  0  0  0  0  0  0
    0.4441    1.3782    0.0000 C   0  0  0  0  0  0  0  0  0  0  0  0
    1.5480   -0.5160    0.0000 C   0  0  0  0  0  0  0  0  0  0  0  0
    2.0052    0.8491    0.0000 C   0  0  0  0  0  0  0  0  0  0  0  0
    1.0582    1.9334    0.0000 C   0  0  0  0  0  0  0  0  0  0  0  0
    0.9210   -1.0582    0.0000 O   0  0  0  0  0  0  0  0  0  0  0  0
    2.3253   -0.7773    0.0000 N   0  0  0  0  0  0  0  0  0  0  0  0
    2.7825    0.5879    0.0000 N   0  0  0  0  0  0  0  0  0  0  0  0
    1.8354    1.6721    0.0000 C   0  0  0  0  0  0  0  0  0  0  0  0
    2.4821   -1.5872    0.0000 C   0  0  0  0  0  0  0  0  0  0  0  0
    2.9393   -0.2221    0.0000 C   0  0  0  0  0  0  0  0  0  0  0  0
    1.8550   -2.1293    0.0000 C   0  0  0  0  0  0  0  0  0  0  0  0
    3.2593   -1.8485    0.0000 C   0  0  0  0  0  0  0  0  0  0  0  0
    3.7166   -0.4833    0.0000 C   0  0  1  0  0  0  0  0  0  0  0  0
    2.0118   -2.9393    0.0000 C   0  0  0  0  0  0  0  0  0  0  0  0
    3.4161   -2.6584    0.0000 C   0  0  0  0  0  0  0  0  0  0  0  0
    4.3305    0.0718    0.0000 N   0  0  0  0  0  0  0  0  0  0  0  0
    3.8733   -1.2933    0.0000 C   0  0  0  0  0  0  0  0  0  0  0  0
    2.7890   -3.2005    0.0000 C   0  0  0  0  0  0  0  0  0  0  0  0
    5.1078   -0.1894    0.0000 C   0  0  0  0  0  0  0  0  0  0  0  0
    4.6506   -1.5545    0.0000 C   0  0  0  0  0  0  0  0  0  0  0  0
    5.2646   -0.9994    0.0000 N   0  0  0  0  0  0  0  0  0  0  0  0
    5.7218    0.3658    0.0000 C   0  0  0  0  0  0  0  0  0  0  0  0
    6.0418   -1.2606    0.0000 C   0  0  0  0  0  0  0  0  0  0  0  0
    5.7283    1.2019    0.0000 N   0  0  0  0  0  2  0  0  0  0  0  0
    6.4991    0.1045    0.0000 C   0  0  0  0  0  0  0  0  0  0  0  0
    6.6558   -0.7054    0.0000 N   0  0  0  0  0  0  0  0  0  0  0  0
    6.5121    1.4566    0.0000 C   0  0  0  0  0  0  0  0  0  0  0  0
    6.9889    0.7773    0.0000 N   0  0  0  0  0  0  0  0  0  0  0  0
  1  2  1  0  0  0  0
  2  3  2  0  0  0  0
  2  4  1  0  0  0  0
  3  5  1  0  0  0  0
  3  6  1  0  0  0  0
  4  7  2  0  0  0  0
  5  8  2  0  0  0  0
  5  9  1  0  0  0  0
  6 10  1  0  0  0  0
  6 11  2  0  0  0  0
  9 12  1  0  0  0  0
  9 13  1  0  0  0  0
 12 14  2  0  0  0  0
 12 15  1  0  0  0  0
 13 16  1  0  0  0  0
 14 17  1  0  0  0  0
 15 18  2  0  0  0  0
 16 19  1  1  0  0  0
 16 20  1  0  0  0  0
 17 21  2  0  0  0  0
 19 22  1  0  0  0  0
 20 23  1  0  0  0  0
 22 24  2  0  0  0  0
 22 25  1  0  0  0  0
 24 26  1  0  0  0  0
 25 27  1  0  0  0  0
 25 28  2  0  0  0  0
 26 29  2  0  0  0  0
 27 30  1  0  0  0  0
 28 31  1  0  0  0  0
  7 11  1  0  0  0  0
 10 13  2  0  0  0  0
 18 21  1  0  0  0  0
 28 29  1  0  0  0  0
 30 31  2  0  0  0  0
M  RAD  1  27   2
M  END

>  <name>
Idelalisib

>  <ROTATABLE_BONDCOUNT>
5

>  <HBDScore>
0.8333333333333334

>  <logD>
3.54

>  <MPOScore>
4.19592380952381

>  <logDScore>
0.22999999999999998

>  <MW>
414.424

>  <charge_dist(7.4)>
0.00

>  <CNS>
FALSE

>  <ArRings>
5

>  <HBD>
1

>  <BALABAN_INDEX>
1.18

>  <bpKa>
1.43

>  <TPSAScore>
0.7913333333333332

>  <MWScore>
0.6112571428571429

>  <bpKaScore>
1.0

>  <logPScore>
0.73

>  <MPO_area>
48.12

>  <TPSA>
96.26

>  <logP>
3.54

$$$$

  Mrv1722703221715202D          

 37 41  0  0  0  0            999 V2000
    0.0000    0.0000    0.0000 O   0  0  0  0  0  0  0  0  0  0  0  0
    0.2974    0.7760    0.0000 C   0  0  0  0  0  0  0  0  0  0  0  0
   -0.2263    1.4356    0.0000 N   0  0  0  0  0  0  0  0  0  0  0  0
    1.1122    0.9053    0.0000 C   0  0  0  0  0  0  0  0  0  0  0  0
   -1.0540    1.3192    0.0000 C   0  0  0  0  0  0  0  0  0  0  0  0
    1.6231    0.2587    0.0000 C   0  0  0  0  0  0  0  0  0  0  0  0
    1.4097    1.6813    0.0000 C   0  0  0  0  0  0  0  0  0  0  0  0
   -1.3644    0.5561    0.0000 C   0  0  0  0  0  0  0  0  0  0  0  0
   -1.5778    1.9787    0.0000 C   0  0  0  0  0  0  0  0  0  0  0  0
    2.4379    0.3880    0.0000 C   0  0  0  0  0  0  0  0  0  0  0  0
    2.2245    1.8106    0.0000 C   0  0  0  0  0  0  0  0  0  0  0  0
   -2.1921    0.4397    0.0000 C   0  0  0  0  0  0  0  0  0  0  0  0
   -2.4056    1.8624    0.0000 C   0  0  0  0  0  0  0  0  0  0  0  0
    2.7353    1.1640    0.0000 C   0  0  0  0  0  0  0  0  0  0  0  0
   -2.5026   -0.3233    0.0000 N   0  0  0  0  0  0  0  0  0  0  0  0
   -2.7160    1.0993    0.0000 C   0  0  0  0  0  0  0  0  0  0  0  0
    3.5501    1.2933    0.0000 C   0  0  0  0  0  0  0  0  0  0  0  0
   -1.9917   -0.9700    0.0000 C   0  0  0  0  0  0  0  0  0  0  0  0
   -3.5437    0.9829    0.0000 C   0  0  0  0  0  0  0  0  0  0  0  0
    4.0610    0.6466    0.0000 N   0  0  0  0  0  0  0  0  0  0  0  0
   -1.1769   -0.8406    0.0000 N   0  0  0  0  0  0  0  0  0  0  0  0
   -2.3021   -1.7331    0.0000 N   0  0  0  0  0  0  0  0  0  0  0  0
    3.7506   -0.1164    0.0000 C   0  0  0  0  0  0  0  0  0  0  0  0
    4.8758    0.7760    0.0000 C   0  0  0  0  0  0  0  0  0  0  0  0
   -0.6661   -1.4873    0.0000 C   0  0  0  0  0  0  0  0  0  0  0  0
   -1.7912   -2.3797    0.0000 C   0  0  0  0  0  0  0  0  0  0  0  0
    4.2614   -0.7630    0.0000 C   0  0  0  0  0  0  0  0  0  0  0  0
    5.3866    0.1293    0.0000 C   0  0  0  0  0  0  0  0  0  0  0  0
    0.1487   -1.3580    0.0000 C   0  0  0  0  0  0  0  0  0  0  0  0
   -0.9765   -2.2504    0.0000 C   0  0  0  0  0  0  0  0  0  0  0  0
    5.0762   -0.6337    0.0000 N   0  0  0  0  0  0  0  0  0  0  0  0
    0.4462   -0.5820    0.0000 C   0  0  0  0  0  0  0  0  0  0  0  0
    0.6596   -2.0046    0.0000 C   0  0  0  0  0  0  0  0  0  0  0  0
    5.5871   -1.2804    0.0000 C   0  0  0  0  0  0  0  0  0  0  0  0
    1.2610   -0.4526    0.0000 N   0  0  0  0  0  0  0  0  0  0  0  0
    1.4743   -1.8753    0.0000 C   0  0  0  0  0  0  0  0  0  0  0  0
    1.7718   -1.0993    0.0000 C   0  0  0  0  0  0  0  0  0  0  0  0
  1  2  2  0  0  0  0
  2  3  1  0  0  0  0
  2  4  1  0  0  0  0
  3  5  1  0  0  0  0
  4  6  2  0  0  0  0
  4  7  1  0  0  0  0
  5  8  2  0  0  0  0
  5  9  1  0  0  0  0
  6 10  1  0  0  0  0
  7 11  2  0  0  0  0
  8 12  1  0  0  0  0
  9 13  2  0  0  0  0
 10 14  2  0  0  0  0
 12 15  1  0  0  0  0
 12 16  2  0  0  0  0
 14 17  1  0  0  0  0
 15 18  1  0  0  0  0
 16 19  1  0  0  0  0
 17 20  1  0  0  0  0
 18 21  2  0  0  0  0
 18 22  1  0  0  0  0
 20 23  1  0  0  0  0
 20 24  1  0  0  0  0
 21 25  1  0  0  0  0
 22 26  2  0  0  0  0
 23 27  1  0  0  0  0
 24 28  1  0  0  0  0
 25 29  1  0  0  0  0
 25 30  2  0  0  0  0
 27 31  1  0  0  0  0
 29 32  2  0  0  0  0
 29 33  1  0  0  0  0
 31 34  1  0  0  0  0
 32 35  1  0  0  0  0
 33 36  2  0  0  0  0
 35 37  2  0  0  0  0
 11 14  1  0  0  0  0
 13 16  1  0  0  0  0
 26 30  1  0  0  0  0
 28 31  1  0  0  0  0
 36 37  1  0  0  0  0
M  END

>  <name>
Imatinib

>  <ROTATABLE_BONDCOUNT>
7

>  <HBDScore>
0.5

>  <dipole>
10.82

>  <logD>
3.80

>  <MPOScore>
2.955607142857143

>  <logDScore>
0.10000000000000009

>  <MW>
493.615

>  <charge_dist(7.4)>
0.74

>  <CNS>
FALSE

>  <ArRings>
4

>  <HBD>
2

>  <BALABAN_INDEX>
0.90

>  <bpKa>
7.84

>  <TPSAScore>
1.0

>  <MWScore>
0.045607142857142846

>  <bpKaScore>
1.0

>  <logPScore>
0.31000000000000005

>  <MPO_area>
28.94

>  <TPSA>
86.28

>  <logP>
4.38

$$$$

  Mrv1722703221715202D          

 24 26  0  0  0  0            999 V2000
    0.0000    0.0000    0.0000 Cl  0  0  0  0  0  0  0  0  0  0  0  0
    0.8146    0.1369    0.0000 C   0  0  0  0  0  0  0  0  0  0  0  0
    1.3295   -0.5018    0.0000 C   0  0  0  0  0  0  0  0  0  0  0  0
    1.1079    0.9189    0.0000 C   0  0  0  0  0  0  0  0  0  0  0  0
    1.0232   -1.2709    0.0000 S   0  0  0  0  0  0  0  0  0  0  0  0
    2.1442   -0.3650    0.0000 C   0  0  0  0  0  0  0  0  0  0  0  0
    1.9226    1.0558    0.0000 C   0  0  0  0  0  0  0  0  0  0  0  0
    0.2411   -0.9646    0.0000 O   0  0  0  0  0  0  0  0  0  0  0  0
    1.7923   -1.5642    0.0000 O   0  0  0  0  0  0  0  0  0  0  0  0
    0.7169   -2.0399    0.0000 N   0  0  0  0  0  0  0  0  0  0  0  0
    2.4375    0.4171    0.0000 C   0  0  0  0  0  0  0  0  0  0  0  0
    3.2521    0.5540    0.0000 C   0  0  0  0  0  0  0  0  0  0  0  0
    3.5454    1.3360    0.0000 O   0  0  0  0  0  0  0  0  0  0  0  0
    3.7670   -0.0847    0.0000 N   0  0  0  0  0  0  0  0  0  0  0  0
    4.5817    0.0521    0.0000 N   0  0  0  0  0  0  0  0  0  0  0  0
    5.1617   -0.5279    0.0000 C   0  0  0  0  0  0  0  0  0  0  0  0
    4.9532    0.7951    0.0000 C   0  0  2  0  0  0  0  0  0  0  0  0
    5.8917   -0.1434    0.0000 C   0  0  0  0  0  0  0  0  0  0  0  0
    5.1096   -1.3491    0.0000 C   0  0  0  0  0  0  0  0  0  0  0  0
    5.7678    0.6713    0.0000 C   0  0  0  0  0  0  0  0  0  0  0  0
    4.5686    1.5381    0.0000 C   0  0  0  0  0  0  0  0  0  0  0  0
    6.5825   -0.5865    0.0000 C   0  0  0  0  0  0  0  0  0  0  0  0
    5.8004   -1.7923    0.0000 C   0  0  0  0  0  0  0  0  0  0  0  0
    6.5303   -1.4077    0.0000 C   0  0  0  0  0  0  0  0  0  0  0  0
  1  2  1  0  0  0  0
  2  3  2  0  0  0  0
  2  4  1  0  0  0  0
  3  5  1  0  0  0  0
  3  6  1  0  0  0  0
  4  7  2  0  0  0  0
  5  8  2  0  0  0  0
  5  9  2  0  0  0  0
  5 10  1  0  0  0  0
  6 11  2  0  0  0  0
 11 12  1  0  0  0  0
 12 13  2  0  0  0  0
 12 14  1  0  0  0  0
 14 15  1  0  0  0  0
 15 16  1  0  0  0  0
 15 17  1  0  0  0  0
 16 18  2  0  0  0  0
 16 19  1  0  0  0  0
 17 20  1  0  0  0  0
 17 21  1  1  0  0  0
 18 22  1  0  0  0  0
 19 23  2  0  0  0  0
 22 24  2  0  0  0  0
  7 11  1  0  0  0  0
 18 20  1  0  0  0  0
 23 24  1  0  0  0  0
M  END

>  <name>
Indapamide

>  <ROTATABLE_BONDCOUNT>
3

>  <HBDScore>
0.5

>  <dipole>
13.20

>  <logD>
2.63

>  <MPOScore>
5.06002380952381

>  <logDScore>
0.685

>  <MW>
365.83

>  <charge_dist(7.4)>
-0.03

>  <CNS>
FALSE

>  <ArRings>
2

>  <HBD>
2

>  <BALABAN_INDEX>
1.48

>  <bpKa>
0.1

>  <TPSAScore>
0.9166666666666666

>  <MWScore>
0.958357142857143

>  <bpKaScore>
1.0

>  <logPScore>
1.0

>  <MPO_area>
71.79

>  <TPSA>
92.50

>  <logP>
2.64

$$$$

  Mrv1722703221715202D          

 45 49  0  0  0  0            999 V2000
    0.0000    0.0000    0.0000 O   0  0  0  0  0  0  0  0  0  0  0  0
   -0.8081   -0.1939    0.0000 C   0  0  0  0  0  0  0  0  0  0  0  0
   -1.0408   -0.9762    0.0000 N   0  0  0  0  0  0  0  0  0  0  0  0
   -1.3835    0.4073    0.0000 C   0  0  1  0  0  0  0  0  0  0  0  0
   -0.4784   -1.5645    0.0000 C   0  0  0  0  0  0  0  0  0  0  0  0
   -1.1637    1.2025    0.0000 N   0  0  0  0  0  0  0  0  0  0  0  0
   -2.1916    0.2134    0.0000 C   0  0  0  0  0  0  0  0  0  0  0  0
   -1.0796   -2.1269    0.0000 C   0  0  0  0  0  0  0  0  0  0  0  0
    0.1099   -0.9891    0.0000 C   0  0  0  0  0  0  0  0  0  0  0  0
    0.0840   -2.1528    0.0000 C   0  0  0  0  0  0  0  0  0  0  0  0
   -1.7391    1.8037    0.0000 C   0  0  0  0  0  0  0  0  0  0  0  0
   -0.3685    1.4093    0.0000 C   0  0  0  0  0  0  0  0  0  0  0  0
   -2.7670    0.8146    0.0000 N   0  0  0  0  0  0  0  0  0  0  0  0
   -2.5472    1.6097    0.0000 C   0  0  0  0  0  0  0  0  0  0  0  0
   -0.1487    2.2045    0.0000 C   0  0  1  0  0  0  0  0  0  0  0  0
   -3.5751    0.6206    0.0000 C   0  0  0  0  0  0  0  0  0  0  0  0
   -0.7241    2.8058    0.0000 O   0  0  0  0  0  0  0  0  0  0  0  0
    0.6465    2.4114    0.0000 C   0  0  0  0  0  0  0  0  0  0  0  0
   -4.1504    1.2218    0.0000 C   0  0  0  0  0  0  0  0  0  0  0  0
    0.8663    3.2065    0.0000 C   0  0  2  0  0  0  0  0  0  0  0  0
   -4.9585    1.0279    0.0000 C   0  0  0  0  0  0  0  0  0  0  0  0
   -3.9306    2.0170    0.0000 C   0  0  0  0  0  0  0  0  0  0  0  0
    0.2909    3.8078    0.0000 C   0  0  0  0  0  0  0  0  0  0  0  0
    1.6615    3.4135    0.0000 C   0  0  0  0  0  0  0  0  0  0  0  0
   -5.5339    1.6292    0.0000 N   0  0  0  0  0  0  0  0  0  0  0  0
   -4.5060    2.6183    0.0000 C   0  0  0  0  0  0  0  0  0  0  0  0
    0.5107    4.6030    0.0000 O   0  0  0  0  0  0  0  0  0  0  0  0
   -0.5172    3.6138    0.0000 N   0  0  0  0  0  0  0  0  0  0  0  0
    2.2239    2.8251    0.0000 C   0  0  0  0  0  0  0  0  0  0  0  0
   -5.3141    2.4243    0.0000 C   0  0  0  0  0  0  0  0  0  0  0  0
   -1.0926    4.2151    0.0000 C   0  0  1  0  0  0  0  0  0  0  0  0
    3.0191    3.0320    0.0000 C   0  0  0  0  0  0  0  0  0  0  0  0
    1.9912    2.0429    0.0000 C   0  0  0  0  0  0  0  0  0  0  0  0
   -1.9136    4.1116    0.0000 C   0  0  0  0  0  0  0  0  0  0  0  0
   -0.9568    5.0296    0.0000 C   0  0  2  0  0  0  0  0  0  0  0  0
    3.5815    2.4437    0.0000 C   0  0  0  0  0  0  0  0  0  0  0  0
    2.5536    1.4546    0.0000 C   0  0  0  0  0  0  0  0  0  0  0  0
   -2.2821    4.8616    0.0000 C   0  0  0  0  0  0  0  0  0  0  0  0
   -2.3791    3.4393    0.0000 C   0  0  0  0  0  0  0  0  0  0  0  0
   -0.2198    5.3982    0.0000 O   0  0  0  0  0  0  0  0  0  0  0  0
   -1.6873    5.4240    0.0000 C   0  0  0  0  0  0  0  0  0  0  0  0
    3.3488    1.6615    0.0000 C   0  0  0  0  0  0  0  0  0  0  0  0
   -3.1096    4.9262    0.0000 C   0  0  0  0  0  0  0  0  0  0  0  0
   -3.2065    3.5039    0.0000 C   0  0  0  0  0  0  0  0  0  0  0  0
   -3.5751    4.2539    0.0000 C   0  0  0  0  0  0  0  0  0  0  0  0
  1  2  2  0  0  0  0
  2  3  1  0  0  0  0
  4  2  1  6  0  0  0
  3  5  1  0  0  0  0
  4  6  1  0  0  0  0
  4  7  1  0  0  0  0
  5  8  1  0  0  0  0
  5  9  1  0  0  0  0
  5 10  1  0  0  0  0
  6 11  1  0  0  0  0
  6 12  1  0  0  0  0
  7 13  1  0  0  0  0
 11 14  1  0  0  0  0
 12 15  1  0  0  0  0
 13 16  1  0  0  0  0
 15 17  1  1  0  0  0
 15 18  1  0  0  0  0
 16 19  1  0  0  0  0
 20 18  1  6  0  0  0
 19 21  2  0  0  0  0
 19 22  1  0  0  0  0
 20 23  1  0  0  0  0
 20 24  1  0  0  0  0
 21 25  1  0  0  0  0
 22 26  2  0  0  0  0
 23 27  2  0  0  0  0
 23 28  1  0  0  0  0
 24 29  1  0  0  0  0
 25 30  2  0  0  0  0
 31 28  1  1  0  0  0
 29 32  2  0  0  0  0
 29 33  1  0  0  0  0
 31 34  1  0  0  0  0
 31 35  1  0  0  0  0
 32 36  1  0  0  0  0
 33 37  2  0  0  0  0
 34 38  2  0  0  0  0
 34 39  1  0  0  0  0
 35 40  1  1  0  0  0
 35 41  1  0  0  0  0
 36 42  2  0  0  0  0
 38 43  1  0  0  0  0
 39 44  2  0  0  0  0
 43 45  2  0  0  0  0
 13 14  1  0  0  0  0
 26 30  1  0  0  0  0
 37 42  1  0  0  0  0
 38 41  1  0  0  0  0
 44 45  1  0  0  0  0
M  END

>  <name>
Indinavir

>  <ROTATABLE_BONDCOUNT>
12

>  <HBDScore>
0.0

>  <dipole>
5.55

>  <logD>
2.72

>  <MPOScore>
2.705666666666666

>  <logDScore>
0.6399999999999999

>  <MW>
613.803

>  <charge_dist(7.4)>
0.18

>  <CNS>
FALSE

>  <ArRings>
3

>  <HBD>
4

>  <BALABAN_INDEX>
1.20

>  <bpKa>
6.76

>  <TPSAScore>
0.06566666666666665

>  <MWScore>
0.0

>  <bpKaScore>
1.0

>  <logPScore>
1.0

>  <MPO_area>
28.03

>  <TPSA>
118.03

>  <logP>
2.81

$$$$

  Mrv1722703221715202D          

 32 36  0  0  0  0            999 V2000
    0.0000    0.0000    0.0000 O   0  0  0  0  0  0  0  0  0  0  0  0
    0.7886   -0.2004    0.0000 C   0  0  0  0  0  0  0  0  0  0  0  0
    1.0795   -0.9632    0.0000 N   0  0  0  0  0  0  0  0  0  0  0  0
    1.4222    0.3232    0.0000 C   0  0  0  0  0  0  0  0  0  0  0  0
    1.8941   -0.9115    0.0000 C   0  0  0  0  0  0  0  0  0  0  0  0
    0.6271   -1.6484    0.0000 C   0  0  0  0  0  0  0  0  0  0  0  0
    2.1074   -0.1164    0.0000 N   0  0  0  0  0  0  0  0  0  0  0  0
    0.7240    0.7757    0.0000 C   0  0  0  0  0  0  0  0  0  0  0  0
    2.0492    0.8468    0.0000 C   0  0  0  0  0  0  0  0  0  0  0  0
    2.4047   -1.5450    0.0000 C   0  0  0  0  0  0  0  0  0  0  0  0
   -0.2004   -1.6032    0.0000 C   0  0  0  0  0  0  0  0  0  0  0  0
    0.9244    1.5773    0.0000 C   0  0  0  0  0  0  0  0  0  0  0  0
    1.7454    1.6226    0.0000 C   0  0  0  0  0  0  0  0  0  0  0  0
    2.1074   -2.3078    0.0000 C   0  0  0  0  0  0  0  0  0  0  0  0
   -0.5818   -0.8663    0.0000 C   0  0  0  0  0  0  0  0  0  0  0  0
   -0.6529   -2.2884    0.0000 C   0  0  0  0  0  0  0  0  0  0  0  0
    2.6181   -2.9413    0.0000 C   0  0  0  0  0  0  0  0  0  0  0  0
   -1.4092   -0.8210    0.0000 C   0  0  0  0  0  0  0  0  0  0  0  0
   -1.4804   -2.2432    0.0000 C   0  0  0  0  0  0  0  0  0  0  0  0
    2.3207   -3.7041    0.0000 C   0  0  0  0  0  0  0  0  0  0  0  0
   -1.8618   -1.5062    0.0000 C   0  0  0  0  0  0  0  0  0  0  0  0
   -2.6892   -1.4609    0.0000 C   0  0  0  0  0  0  0  0  0  0  0  0
   -3.0706   -0.7240    0.0000 C   0  0  0  0  0  0  0  0  0  0  0  0
   -3.1417   -2.1462    0.0000 C   0  0  0  0  0  0  0  0  0  0  0  0
   -2.6310   -0.0259    0.0000 C   0  0  0  0  0  0  0  0  0  0  0  0
   -3.8981   -0.6788    0.0000 C   0  0  0  0  0  0  0  0  0  0  0  0
   -3.9691   -2.1009    0.0000 C   0  0  0  0  0  0  0  0  0  0  0  0
   -1.8165    0.0259    0.0000 N   0  0  0  0  0  0  0  0  0  0  0  0
   -2.9349    0.7499    0.0000 N   0  0  0  0  0  0  0  0  0  0  0  0
   -4.3506   -1.3640    0.0000 C   0  0  0  0  0  0  0  0  0  0  0  0
   -1.6161    0.8274    0.0000 N   0  0  0  0  0  0  0  0  0  0  0  0
   -2.3013    1.2735    0.0000 N   0  0  0  0  0  2  0  0  0  0  0  0
  1  2  2  0  0  0  0
  2  3  1  0  0  0  0
  2  4  1  0  0  0  0
  3  5  1  0  0  0  0
  3  6  1  0  0  0  0
  4  7  1  0  0  0  0
  4  8  1  0  0  0  0
  4  9  1  0  0  0  0
  5 10  1  0  0  0  0
  6 11  1  0  0  0  0
  8 12  1  0  0  0  0
  9 13  1  0  0  0  0
 10 14  1  0  0  0  0
 11 15  2  0  0  0  0
 11 16  1  0  0  0  0
 14 17  1  0  0  0  0
 15 18  1  0  0  0  0
 16 19  2  0  0  0  0
 17 20  1  0  0  0  0
 18 21  2  0  0  0  0
 21 22  1  0  0  0  0
 22 23  2  0  0  0  0
 22 24  1  0  0  0  0
 23 25  1  0  0  0  0
 23 26  1  0  0  0  0
 24 27  2  0  0  0  0
 25 28  1  0  0  0  0
 25 29  2  0  0  0  0
 26 30  2  0  0  0  0
 28 31  2  0  0  0  0
 29 32  1  0  0  0  0
  5  7  2  0  0  0  0
 12 13  1  0  0  0  0
 19 21  1  0  0  0  0
 27 30  1  0  0  0  0
 31 32  1  0  0  0  0
M  RAD  1  32   2
M  END

>  <name>
Irbesartan

>  <ROTATABLE_BONDCOUNT>
7

>  <HBDScore>
1.0

>  <logD>
4.61

>  <MPOScore>
3.7126285714285716

>  <logDScore>
0.0

>  <MW>
427.532

>  <charge_dist(7.4)>
0.00

>  <CNS>
FALSE

>  <ArRings>
3

>  <HBD>
0

>  <BALABAN_INDEX>
1.17

>  <bpKa>
4.11

>  <TPSAScore>
1.0

>  <MWScore>
0.5176285714285715

>  <bpKaScore>
1.0

>  <logPScore>
0.19499999999999984

>  <MPO_area>
43.64

>  <TPSA>
84.23

>  <logP>
4.61

$$$$

  Mrv1722703221715202D          

 10 10  0  0  0  0            999 V2000
    0.0000    0.0000    0.0000 O   0  0  0  0  0  0  0  0  0  0  0  0
    0.3111    0.7713    0.0000 C   0  0  0  0  0  0  0  0  0  0  0  0
   -0.2009    1.4325    0.0000 N   0  0  0  0  0  0  0  0  0  0  0  0
    1.1278    0.8880    0.0000 C   0  0  0  0  0  0  0  0  0  0  0  0
   -1.0306    1.3288    0.0000 N   0  0  0  0  0  0  0  0  0  0  0  0
    1.4389    1.6593    0.0000 C   0  0  0  0  0  0  0  0  0  0  0  0
    1.6269    0.2398    0.0000 C   0  0  0  0  0  0  0  0  0  0  0  0
    2.2556    1.7760    0.0000 C   0  0  0  0  0  0  0  0  0  0  0  0
    2.4436    0.3565    0.0000 C   0  0  0  0  0  0  0  0  0  0  0  0
    2.7547    1.1278    0.0000 N   0  0  0  0  0  0  0  0  0  0  0  0
  1  2  2  0  0  0  0
  2  3  1  0  0  0  0
  2  4  1  0  0  0  0
  3  5  1  0  0  0  0
  4  6  2  0  0  0  0
  4  7  1  0  0  0  0
  6  8  1  0  0  0  0
  7  9  2  0  0  0  0
  8 10  2  0  0  0  0
  9 10  1  0  0  0  0
M  END

>  <name>
Isoniazid

>  <ROTATABLE_BONDCOUNT>
1

>  <HBDScore>
0.5

>  <dipole>
4.41

>  <logD>
-0.69

>  <MPOScore>
5.5

>  <logDScore>
1.0

>  <MW>
137.142

>  <charge_dist(7.4)>
0.00

>  <CNS>
FALSE

>  <ArRings>
1

>  <HBD>
2

>  <BALABAN_INDEX>
2.24

>  <bpKa>
3.35

>  <TPSAScore>
1.0

>  <MWScore>
1.0

>  <bpKaScore>
1.0

>  <logPScore>
1.0

>  <MPO_area>
83.33

>  <TPSA>
68.01

>  <logP>
-0.69

$$$$

  Mrv1722703221715202D          

 26 27  0  0  0  0            999 V2000
    0.0000    0.0000    0.0000 O   0  0  0  0  0  0  0  0  0  0  0  0
   -0.8028   -0.2149    0.0000 C   0  0  0  0  0  0  0  0  0  0  0  0
   -1.4034    0.3729    0.0000 N   0  0  0  0  0  0  0  0  0  0  0  0
   -1.0177   -1.0114    0.0000 C   0  0  0  0  0  0  0  0  0  0  0  0
   -0.2213   -1.2137    0.0000 C   0  0  0  0  0  0  0  0  0  0  0  0
   -1.2327   -1.8079    0.0000 C   0  0  0  0  0  0  0  0  0  0  0  0
   -1.8269   -0.7965    0.0000 C   0  0  0  0  0  0  0  0  0  0  0  0
   -0.0063   -2.0039    0.0000 C   0  0  0  0  0  0  0  0  0  0  0  0
    0.3540   -0.6132    0.0000 C   0  0  0  0  0  0  0  0  0  0  0  0
   -2.0355   -2.0228    0.0000 C   0  0  0  0  0  0  0  0  0  0  0  0
   -0.6448   -2.3831    0.0000 C   0  0  0  0  0  0  0  0  0  0  0  0
   -2.4148   -1.3844    0.0000 C   0  0  0  0  0  0  0  0  0  0  0  0
    0.7902   -2.2062    0.0000 C   0  0  0  0  0  0  0  0  0  0  0  0
    1.1505   -0.8155    0.0000 C   0  0  0  0  0  0  0  0  0  0  0  0
   -2.2504   -2.8194    0.0000 C   0  0  0  0  0  0  0  0  0  0  0  0
   -0.8597   -3.1797    0.0000 C   0  0  0  0  0  0  0  0  0  0  0  0
   -3.2239   -1.1695    0.0000 N   0  3  0  0  0  0  0  0  0  0  0  0
    1.3654   -1.6056    0.0000 C   0  0  0  0  0  0  0  0  0  0  0  0
   -1.6626   -3.3946    0.0000 C   0  0  0  0  0  0  0  0  0  0  0  0
   -3.0216   -0.3603    0.0000 C   0  0  0  0  0  0  0  0  0  0  0  0
   -3.4389   -1.9660    0.0000 C   0  0  0  0  0  0  0  0  0  0  0  0
   -4.0331   -0.9546    0.0000 C   0  0  0  0  0  0  0  0  0  0  0  0
   -3.6222    0.2276    0.0000 C   0  0  0  0  0  0  0  0  0  0  0  0
   -2.2315   -0.1327    0.0000 C   0  0  0  0  0  0  0  0  0  0  0  0
   -4.2417   -2.1809    0.0000 C   0  0  0  0  0  0  0  0  0  0  0  0
   -2.8510   -2.5412    0.0000 C   0  0  0  0  0  0  0  0  0  0  0  0
  1  2  2  0  0  0  0
  2  3  1  0  0  0  0
  2  4  1  0  0  0  0
  4  5  1  0  0  0  0
  4  6  1  0  0  0  0
  4  7  1  0  0  0  0
  5  8  2  0  0  0  0
  5  9  1  0  0  0  0
  6 10  2  0  0  0  0
  6 11  1  0  0  0  0
  7 12  1  0  0  0  0
  8 13  1  0  0  0  0
  9 14  2  0  0  0  0
 10 15  1  0  0  0  0
 11 16  2  0  0  0  0
 12 17  1  0  0  0  0
 13 18  2  0  0  0  0
 15 19  2  0  0  0  0
 17 20  1  0  0  0  0
 17 21  1  0  0  0  0
 17 22  1  0  0  0  0
 20 23  1  0  0  0  0
 20 24  1  0  0  0  0
 21 25  1  0  0  0  0
 21 26  1  0  0  0  0
 14 18  1  0  0  0  0
 16 19  1  0  0  0  0
M  CHG  1  17   1
M  END

>  <name>
Isopropamide

>  <ROTATABLE_BONDCOUNT>
8

>  <HBDScore>
0.8333333333333334

>  <dipole>
11.83

>  <logD>
0.14

>  <MPOScore>
5.833333333333333

>  <logDScore>
1.0

>  <MW>
353.529

>  <charge_dist(7.4)>
-0.00

>  <CNS>
FALSE

>  <ArRings>
2

>  <HBD>
1

>  <BALABAN_INDEX>
2.31

>  <bpKa>
-3.34

>  <TPSAScore>
1.0

>  <MWScore>
1.0

>  <bpKaScore>
1.0

>  <logPScore>
1.0

>  <MPO_area>
94.44

>  <TPSA>
43.09

>  <logP>
0.14

$$$$

  Mrv1722703221715202D          

 49 55  0  0  0  0            999 V2000
    0.0000    0.0000    0.0000 Cl  0  0  0  0  0  0  0  0  0  0  0  0
    0.7532    0.3026    0.0000 C   0  0  0  0  0  0  0  0  0  0  0  0
    1.3842   -0.1996    0.0000 C   0  0  0  0  0  0  0  0  0  0  0  0
    0.8692    1.1202    0.0000 C   0  0  0  0  0  0  0  0  0  0  0  0
    2.1375    0.1030    0.0000 C   0  0  0  0  0  0  0  0  0  0  0  0
    1.2554   -1.0044    0.0000 C   0  0  2  0  0  0  0  0  0  0  0  0
    1.6224    1.4228    0.0000 C   0  0  0  0  0  0  0  0  0  0  0  0
    2.2533    0.9207    0.0000 C   0  0  0  0  0  0  0  0  0  0  0  0
    0.4571   -0.7919    0.0000 O   0  0  0  0  0  0  0  0  0  0  0  0
    1.3005   -1.8156    0.0000 O   0  0  0  0  0  0  0  0  0  0  0  0
    2.0667   -1.0365    0.0000 C   0  0  0  0  0  0  0  0  0  0  0  0
    1.7383    2.2405    0.0000 Cl  0  0  0  0  0  0  0  0  0  0  0  0
    0.0129   -1.4743    0.0000 C   0  0  2  0  0  0  0  0  0  0  0  0
    0.5344   -2.1053    0.0000 C   0  0  0  0  0  0  0  0  0  0  0  0
    2.4401   -1.7576    0.0000 N   0  0  0  0  0  0  0  0  0  0  0  0
   -0.8112   -1.5194    0.0000 C   0  0  0  0  0  0  0  0  0  0  0  0
    3.2448   -1.8735    0.0000 N   0  0  0  0  0  0  0  0  0  0  0  0
    2.0667   -2.4851    0.0000 C   0  0  0  0  0  0  0  0  0  0  0  0
   -1.2683   -0.8306    0.0000 O   0  0  0  0  0  0  0  0  0  0  0  0
    3.3736   -2.6719    0.0000 C   0  0  0  0  0  0  0  0  0  0  0  0
    2.6461   -3.0517    0.0000 N   0  0  0  0  0  0  0  0  0  0  0  0
   -2.0924   -0.8756    0.0000 C   0  0  0  0  0  0  0  0  0  0  0  0
   -2.4658   -1.6031    0.0000 C   0  0  0  0  0  0  0  0  0  0  0  0
   -2.5495   -0.1867    0.0000 C   0  0  0  0  0  0  0  0  0  0  0  0
   -3.2899   -1.6482    0.0000 C   0  0  0  0  0  0  0  0  0  0  0  0
   -3.3736   -0.2318    0.0000 C   0  0  0  0  0  0  0  0  0  0  0  0
   -3.7470   -0.9593    0.0000 C   0  0  0  0  0  0  0  0  0  0  0  0
   -4.5711   -1.0044    0.0000 N   0  0  0  0  0  0  0  0  0  0  0  0
   -4.9445   -1.7319    0.0000 C   0  0  0  0  0  0  0  0  0  0  0  0
   -5.0282   -0.3155    0.0000 C   0  0  0  0  0  0  0  0  0  0  0  0
   -5.7686   -1.7769    0.0000 C   0  0  0  0  0  0  0  0  0  0  0  0
   -5.8523   -0.3605    0.0000 C   0  0  0  0  0  0  0  0  0  0  0  0
   -6.2257   -1.0881    0.0000 N   0  0  0  0  0  0  0  0  0  0  0  0
   -7.0498   -1.1331    0.0000 C   0  0  0  0  0  0  0  0  0  0  0  0
   -7.4232   -1.8606    0.0000 C   0  0  0  0  0  0  0  0  0  0  0  0
   -7.5069   -0.4442    0.0000 C   0  0  0  0  0  0  0  0  0  0  0  0
   -8.2473   -1.9057    0.0000 C   0  0  0  0  0  0  0  0  0  0  0  0
   -8.3310   -0.4893    0.0000 C   0  0  0  0  0  0  0  0  0  0  0  0
   -8.7044   -1.2168    0.0000 C   0  0  0  0  0  0  0  0  0  0  0  0
   -9.5285   -1.2619    0.0000 N   0  0  0  0  0  0  0  0  0  0  0  0
  -10.0565   -0.6245    0.0000 C   0  0  0  0  0  0  0  0  0  0  0  0
   -9.9792   -1.9443    0.0000 C   0  0  0  0  0  0  0  0  0  0  0  0
   -9.8569    0.1738    0.0000 O   0  0  0  0  0  0  0  0  0  0  0  0
  -10.8226   -0.9142    0.0000 N   0  0  0  0  0  0  0  0  0  0  0  0
  -10.7775   -1.7319    0.0000 N   0  0  0  0  0  0  0  0  0  0  0  0
  -11.5179   -0.4636    0.0000 C   0  0  0  0  0  0  0  0  0  0  0  0
  -11.4857    0.3605    0.0000 C   0  0  0  0  0  0  0  0  0  0  0  0
  -12.2519   -0.8370    0.0000 C   0  0  0  0  0  0  0  0  0  0  0  0
  -12.1811    0.8112    0.0000 C   0  0  0  0  0  0  0  0  0  0  0  0
  1  2  1  0  0  0  0
  2  3  2  0  0  0  0
  2  4  1  0  0  0  0
  3  5  1  0  0  0  0
  3  6  1  0  0  0  0
  4  7  2  0  0  0  0
  5  8  2  0  0  0  0
  6  9  1  0  0  0  0
  6 10  1  0  0  0  0
  6 11  1  6  0  0  0
  7 12  1  0  0  0  0
  9 13  1  0  0  0  0
 10 14  1  0  0  0  0
 11 15  1  0  0  0  0
 13 16  1  6  0  0  0
 15 17  1  0  0  0  0
 15 18  1  0  0  0  0
 16 19  1  0  0  0  0
 17 20  2  0  0  0  0
 18 21  2  0  0  0  0
 19 22  1  0  0  0  0
 22 23  2  0  0  0  0
 22 24  1  0  0  0  0
 23 25  1  0  0  0  0
 24 26  2  0  0  0  0
 25 27  2  0  0  0  0
 27 28  1  0  0  0  0
 28 29  1  0  0  0  0
 28 30  1  0  0  0  0
 29 31  1  0  0  0  0
 30 32  1  0  0  0  0
 31 33  1  0  0  0  0
 33 34  1  0  0  0  0
 34 35  2  0  0  0  0
 34 36  1  0  0  0  0
 35 37  1  0  0  0  0
 36 38  2  0  0  0  0
 37 39  2  0  0  0  0
 39 40  1  0  0  0  0
 40 41  1  0  0  0  0
 40 42  1  0  0  0  0
 41 43  2  0  0  0  0
 41 44  1  0  0  0  0
 42 45  2  0  0  0  0
 44 46  1  0  0  0  0
 46 47  1  0  0  0  0
 46 48  1  0  0  0  0
 47 49  1  0  0  0  0
  7  8  1  0  0  0  0
 13 14  1  0  0  0  0
 20 21  1  0  0  0  0
 26 27  1  0  0  0  0
 32 33  1  0  0  0  0
 38 39  1  0  0  0  0
 44 45  1  0  0  0  0
M  END

>  <name>
Itraconazole

>  <ROTATABLE_BONDCOUNT>
11

>  <HBDScore>
1.0

>  <dipole>
4.35

>  <logD>
7.31

>  <MPOScore>
2.6403333333333334

>  <logDScore>
0.0

>  <MW>
705.64

>  <charge_dist(7.4)>
0.00

>  <CNS>
FALSE

>  <ArRings>
5

>  <HBD>
0

>  <BALABAN_INDEX>
0.70

>  <bpKa>
3.91

>  <TPSAScore>
0.6403333333333332

>  <MWScore>
0.0

>  <bpKaScore>
1.0

>  <logPScore>
0.0

>  <MPO_area>
27.34

>  <TPSA>
100.79

>  <logP>
7.31

$$$$

  Mrv1722703221715202D          

 29 31  0  0  0  0            999 V2000
    0.0000    0.0000    0.0000 O   0  0  0  0  0  0  0  0  0  0  0  0
    0.4471    0.6934    0.0000 C   0  0  0  0  0  0  0  0  0  0  0  0
    0.0713    1.4385    0.0000 C   0  0  0  0  0  0  0  0  0  0  0  0
    1.2636    0.6544    0.0000 C   0  0  0  0  0  0  0  0  0  0  0  0
   -0.7581    1.4904    0.0000 C   0  0  0  0  0  0  0  0  0  0  0  0
    0.5184    2.1319    0.0000 C   0  0  0  0  0  0  0  0  0  0  0  0
    1.7107    1.3478    0.0000 C   0  0  0  0  0  0  0  0  0  0  0  0
    1.6264   -0.0778    0.0000 C   0  0  0  0  0  0  0  0  0  0  0  0
   -1.1339    2.2355    0.0000 O   0  0  0  0  0  0  0  0  0  0  0  0
   -1.2182    0.8100    0.0000 N   0  0  0  0  0  0  0  0  0  0  0  0
    1.3349    2.0929    0.0000 N   0  0  0  0  0  0  0  0  0  0  0  0
    2.5271    1.3089    0.0000 C   0  0  0  0  0  0  0  0  0  0  0  0
    2.4429   -0.1166    0.0000 C   0  0  0  0  0  0  0  0  0  0  0  0
   -2.0476    0.8618    0.0000 C   0  0  0  0  0  0  0  0  0  0  0  0
    2.8900    0.5767    0.0000 C   0  0  0  0  0  0  0  0  0  0  0  0
   -2.5077    0.1814    0.0000 C   0  0  0  0  0  0  0  0  0  0  0  0
   -2.4234    1.6070    0.0000 C   0  0  0  0  0  0  0  0  0  0  0  0
   -3.3371    0.2333    0.0000 C   0  0  0  0  0  0  0  0  0  0  0  0
   -2.1448   -0.5508    0.0000 C   0  0  0  0  0  0  0  0  0  0  0  0
   -3.2529    1.6588    0.0000 C   0  0  0  0  0  0  0  0  0  0  0  0
   -3.7129    0.9784    0.0000 C   0  0  0  0  0  0  0  0  0  0  0  0
   -1.4126   -0.1749    0.0000 C   0  0  0  0  0  0  0  0  0  0  0  0
   -2.8900   -0.9136    0.0000 C   0  0  0  0  0  0  0  0  0  0  0  0
   -1.7819   -1.2830    0.0000 C   0  0  0  0  0  0  0  0  0  0  0  0
   -3.6287    2.4040    0.0000 O   0  0  0  0  0  0  0  0  0  0  0  0
   -4.5423    1.0303    0.0000 C   0  0  0  0  0  0  0  0  0  0  0  0
   -4.5942    0.2139    0.0000 C   0  0  0  0  0  0  0  0  0  0  0  0
   -4.5035    1.8597    0.0000 C   0  0  0  0  0  0  0  0  0  0  0  0
   -5.3718    1.0821    0.0000 C   0  0  0  0  0  0  0  0  0  0  0  0
  1  2  2  0  0  0  0
  2  3  1  0  0  0  0
  2  4  1  0  0  0  0
  3  5  1  0  0  0  0
  3  6  2  0  0  0  0
  4  7  2  0  0  0  0
  4  8  1  0  0  0  0
  5  9  2  0  0  0  0
  5 10  1  0  0  0  0
  6 11  1  0  0  0  0
  7 12  1  0  0  0  0
  8 13  2  0  0  0  0
 10 14  1  0  0  0  0
 12 15  2  0  0  0  0
 14 16  2  0  0  0  0
 14 17  1  0  0  0  0
 16 18  1  0  0  0  0
 16 19  1  0  0  0  0
 17 20  2  0  0  0  0
 18 21  2  0  0  0  0
 19 22  1  0  0  0  0
 19 23  1  0  0  0  0
 19 24  1  0  0  0  0
 20 25  1  0  0  0  0
 21 26  1  0  0  0  0
 26 27  1  0  0  0  0
 26 28  1  0  0  0  0
 26 29  1  0  0  0  0
  7 11  1  0  0  0  0
 13 15  1  0  0  0  0
 20 21  1  0  0  0  0
M  END

>  <name>
Ivacaftor

>  <ROTATABLE_BONDCOUNT>
4

>  <HBDScore>
0.16666666666666674

>  <dipole>
9.92

>  <logD>
5.76

>  <MPOScore>
2.9345309523809524

>  <logDScore>
0.0

>  <MW>
392.499

>  <charge_dist(7.4)>
-0.01

>  <CNS>
FALSE

>  <ArRings>
3

>  <HBD>
3

>  <BALABAN_INDEX>
1.53

>  <bpKa>
-0.95

>  <TPSAScore>
1.0

>  <MWScore>
0.7678642857142856

>  <bpKaScore>
1.0

>  <logPScore>
0.0

>  <MPO_area>
31.6

>  <TPSA>
78.43

>  <logP>
5.76

$$$$

  Mrv1722703221715202D          

 36 40  0  0  0  0            999 V2000
    0.0000    0.0000    0.0000 Cl  0  0  0  0  0  0  0  0  0  0  0  0
    0.7693    0.2845    0.0000 C   0  0  0  0  0  0  0  0  0  0  0  0
    1.3900   -0.2392    0.0000 C   0  0  0  0  0  0  0  0  0  0  0  0
    0.9116    1.0991    0.0000 C   0  0  0  0  0  0  0  0  0  0  0  0
    2.1594    0.0452    0.0000 C   0  0  0  0  0  0  0  0  0  0  0  0
    1.2348   -1.0409    0.0000 C   0  0  2  0  0  0  0  0  0  0  0  0
    1.6809    1.3836    0.0000 C   0  0  0  0  0  0  0  0  0  0  0  0
    2.3016    0.8599    0.0000 C   0  0  0  0  0  0  0  0  0  0  0  0
    0.4397   -0.8017    0.0000 O   0  0  0  0  0  0  0  0  0  0  0  0
    1.2542   -1.8555    0.0000 O   0  0  0  0  0  0  0  0  0  0  0  0
    2.0495   -1.0926    0.0000 C   0  0  0  0  0  0  0  0  0  0  0  0
    1.8232    2.1982    0.0000 Cl  0  0  0  0  0  0  0  0  0  0  0  0
   -0.0323   -1.4741    0.0000 C   0  0  2  0  0  0  0  0  0  0  0  0
    0.4720   -2.1270    0.0000 C   0  0  0  0  0  0  0  0  0  0  0  0
    2.3986   -1.8232    0.0000 N   0  0  0  0  0  0  0  0  0  0  0  0
   -0.8599   -1.4935    0.0000 C   0  0  0  0  0  0  0  0  0  0  0  0
    2.0042   -2.5408    0.0000 C   0  0  0  0  0  0  0  0  0  0  0  0
    3.2003   -1.9654    0.0000 C   0  0  0  0  0  0  0  0  0  0  0  0
   -1.2995   -0.7888    0.0000 O   0  0  0  0  0  0  0  0  0  0  0  0
    2.5667   -3.1291    0.0000 N   0  0  0  0  0  0  0  0  0  0  0  0
    3.3037   -2.7735    0.0000 C   0  0  0  0  0  0  0  0  0  0  0  0
   -2.1270   -0.8082    0.0000 C   0  0  0  0  0  0  0  0  0  0  0  0
   -2.5214   -1.5258    0.0000 C   0  0  0  0  0  0  0  0  0  0  0  0
   -2.5667   -0.1034    0.0000 C   0  0  0  0  0  0  0  0  0  0  0  0
   -3.3489   -1.5452    0.0000 C   0  0  0  0  0  0  0  0  0  0  0  0
   -3.3942   -0.1229    0.0000 C   0  0  0  0  0  0  0  0  0  0  0  0
   -3.7886   -0.8405    0.0000 C   0  0  0  0  0  0  0  0  0  0  0  0
   -4.6161   -0.8599    0.0000 N   0  0  0  0  0  0  0  0  0  0  0  0
   -5.0558   -0.1552    0.0000 C   0  0  0  0  0  0  0  0  0  0  0  0
   -5.0105   -1.5775    0.0000 C   0  0  0  0  0  0  0  0  0  0  0  0
   -5.8833   -0.1746    0.0000 C   0  0  0  0  0  0  0  0  0  0  0  0
   -5.8381   -1.5969    0.0000 C   0  0  0  0  0  0  0  0  0  0  0  0
   -6.2777   -0.8922    0.0000 N   0  0  0  0  0  0  0  0  0  0  0  0
   -7.1052   -0.9116    0.0000 C   0  0  0  0  0  0  0  0  0  0  0  0
   -7.4996   -1.6292    0.0000 O   0  0  0  0  0  0  0  0  0  0  0  0
   -7.5448   -0.2069    0.0000 C   0  0  0  0  0  0  0  0  0  0  0  0
  1  2  1  0  0  0  0
  2  3  2  0  0  0  0
  2  4  1  0  0  0  0
  3  5  1  0  0  0  0
  3  6  1  0  0  0  0
  4  7  2  0  0  0  0
  5  8  2  0  0  0  0
  6  9  1  0  0  0  0
  6 10  1  0  0  0  0
  6 11  1  6  0  0  0
  7 12  1  0  0  0  0
  9 13  1  0  0  0  0
 10 14  1  0  0  0  0
 11 15  1  0  0  0  0
 13 16  1  6  0  0  0
 15 17  1  0  0  0  0
 15 18  1  0  0  0  0
 16 19  1  0  0  0  0
 17 20  2  0  0  0  0
 18 21  2  0  0  0  0
 19 22  1  0  0  0  0
 22 23  2  0  0  0  0
 22 24  1  0  0  0  0
 23 25  1  0  0  0  0
 24 26  2  0  0  0  0
 25 27  2  0  0  0  0
 27 28  1  0  0  0  0
 28 29  1  0  0  0  0
 28 30  1  0  0  0  0
 29 31  1  0  0  0  0
 30 32  1  0  0  0  0
 31 33  1  0  0  0  0
 33 34  1  0  0  0  0
 34 35  2  0  0  0  0
 34 36  1  0  0  0  0
  7  8  1  0  0  0  0
 13 14  1  0  0  0  0
 20 21  1  0  0  0  0
 26 27  1  0  0  0  0
 32 33  1  0  0  0  0
M  END

>  <name>
Ketoconazole

>  <ROTATABLE_BONDCOUNT>
7

>  <HBDScore>
1.0

>  <dipole>
4.30

>  <logD>
4.16

>  <MPOScore>
3.405

>  <logDScore>
0.0

>  <MW>
531.43

>  <charge_dist(7.4)>
0.10

>  <CNS>
FALSE

>  <ArRings>
3

>  <HBD>
0

>  <BALABAN_INDEX>
0.98

>  <bpKa>
6.42

>  <TPSAScore>
1.0

>  <MWScore>
0.0

>  <bpKaScore>
1.0

>  <logPScore>
0.4049999999999998

>  <MPO_area>
40.08

>  <TPSA>
69.06

>  <logP>
4.19

$$$$

  Mrv1722703221715202D          

 19 21  0  0  0  0            999 V2000
    0.0000    0.0000    0.0000 O   0  0  0  0  0  0  0  0  0  0  0  0
    0.0261   -0.8219    0.0000 C   0  0  0  0  0  0  0  0  0  0  0  0
    0.7566   -1.2002    0.0000 C   0  0  0  0  0  0  0  0  0  0  0  0
   -0.6783   -1.2589    0.0000 C   0  0  0  0  0  0  0  0  0  0  0  0
    0.7827   -2.0220    0.0000 C   0  0  0  0  0  0  0  0  0  0  0  0
    1.4480   -0.7501    0.0000 C   0  0  0  0  0  0  0  0  0  0  0  0
   -1.4545   -0.9458    0.0000 N   0  0  0  0  0  0  0  0  0  0  0  0
   -0.7371   -2.0807    0.0000 C   0  0  0  0  0  0  0  0  0  0  0  0
    1.5133   -2.4003    0.0000 C   0  0  0  0  0  0  0  0  0  0  0  0
    2.1786   -1.1284    0.0000 C   0  0  0  0  0  0  0  0  0  0  0  0
   -1.9894   -1.5785    0.0000 C   0  0  0  0  0  0  0  0  0  0  0  0
   -1.9046   -0.2413    0.0000 C   0  0  0  0  0  0  0  0  0  0  0  0
   -1.5459   -2.2764    0.0000 C   0  0  0  0  0  0  0  0  0  0  0  0
    2.2046   -1.9503    0.0000 C   0  0  0  0  0  0  0  0  0  0  0  0
   -2.7656   -1.2654    0.0000 C   0  0  1  0  0  0  0  0  0  0  0  0
   -2.7135   -0.4370    0.0000 C   0  0  0  0  0  0  0  0  0  0  0  0
   -3.4701   -1.7024    0.0000 C   0  0  0  0  0  0  0  0  0  0  0  0
   -3.4440   -2.5243    0.0000 O   0  0  0  0  0  0  0  0  0  0  0  0
   -4.2137   -1.3111    0.0000 O   0  0  0  0  0  0  0  0  0  0  0  0
  1  2  2  0  0  0  0
  2  3  1  0  0  0  0
  2  4  1  0  0  0  0
  3  5  2  0  0  0  0
  3  6  1  0  0  0  0
  4  7  1  0  0  0  0
  4  8  2  0  0  0  0
  5  9  1  0  0  0  0
  6 10  2  0  0  0  0
  7 11  1  0  0  0  0
  7 12  1  0  0  0  0
  8 13  1  0  0  0  0
  9 14  2  0  0  0  0
 11 15  1  0  0  0  0
 12 16  1  0  0  0  0
 15 17  1  6  0  0  0
 17 18  2  0  0  0  0
 17 19  1  0  0  0  0
 10 14  1  0  0  0  0
 11 13  2  0  0  0  0
 15 16  1  0  0  0  0
M  END

>  <name>
Ketorolac

>  <ROTATABLE_BONDCOUNT>
3

>  <HBDScore>
0.8333333333333334

>  <dipole>
4.69

>  <logD>
-0.96

>  <MPOScore>
5.833333333333333

>  <logDScore>
1.0

>  <MW>
255.273

>  <charge_dist(7.4)>
-1.00

>  <CNS>
FALSE

>  <ArRings>
2

>  <HBD>
1

>  <BALABAN_INDEX>
1.56

>  <bpKa>
-7.79

>  <TPSAScore>
1.0

>  <MWScore>
1.0

>  <bpKaScore>
1.0

>  <logPScore>
1.0

>  <MPO_area>
94.44

>  <TPSA>
59.30

>  <logP>
2.28

$$$$

  Mrv1722703221715202D          

 24 25  0  0  0  0            999 V2000
    0.0000    0.0000    0.0000 O   0  0  0  0  0  0  0  0  0  0  0  0
   -0.4865   -0.6529    0.0000 C   0  0  0  0  0  0  0  0  0  0  0  0
   -0.1601   -1.3955    0.0000 N   0  0  0  0  0  0  0  0  0  0  0  0
   -1.3059   -0.5569    0.0000 C   0  0  0  0  0  0  0  0  0  0  0  0
   -1.6451    0.1984    0.0000 C   0  0  0  0  0  0  0  0  0  0  0  0
   -1.7924   -1.2099    0.0000 C   0  0  0  0  0  0  0  0  0  0  0  0
   -1.1715    0.8642    0.0000 O   0  0  0  0  0  0  0  0  0  0  0  0
   -2.4645    0.2944    0.0000 C   0  0  0  0  0  0  0  0  0  0  0  0
   -2.6118   -1.1138    0.0000 C   0  0  0  0  0  0  0  0  0  0  0  0
   -2.9511   -0.3585    0.0000 C   0  0  0  0  0  0  0  0  0  0  0  0
   -3.0982   -1.7668    0.0000 C   0  0  0  0  0  0  0  0  0  0  0  0
   -2.7718   -2.5094    0.0000 O   0  0  0  0  0  0  0  0  0  0  0  0
   -3.9176   -1.6708    0.0000 C   0  0  0  0  0  0  0  0  0  0  0  0
   -4.4042   -2.3237    0.0000 N   0  0  0  0  0  0  0  0  0  0  0  0
   -5.2235   -2.2277    0.0000 C   0  0  0  0  0  0  0  0  0  0  0  0
   -5.5628   -1.4723    0.0000 C   0  0  0  0  0  0  0  0  0  0  0  0
   -5.7100   -2.8806    0.0000 C   0  0  0  0  0  0  0  0  0  0  0  0
   -6.3822   -1.3763    0.0000 C   0  0  0  0  0  0  0  0  0  0  0  0
   -6.7215   -0.6209    0.0000 C   0  0  0  0  0  0  0  0  0  0  0  0
   -6.2477    0.0448    0.0000 C   0  0  0  0  0  0  0  0  0  0  0  0
   -7.5408   -0.5249    0.0000 C   0  0  0  0  0  0  0  0  0  0  0  0
   -6.5870    0.8002    0.0000 C   0  0  0  0  0  0  0  0  0  0  0  0
   -7.8801    0.2305    0.0000 C   0  0  0  0  0  0  0  0  0  0  0  0
   -7.4064    0.8962    0.0000 C   0  0  0  0  0  0  0  0  0  0  0  0
  1  2  2  0  0  0  0
  2  3  1  0  0  0  0
  2  4  1  0  0  0  0
  4  5  2  0  0  0  0
  4  6  1  0  0  0  0
  5  7  1  0  0  0  0
  5  8  1  0  0  0  0
  6  9  2  0  0  0  0
  8 10  2  0  0  0  0
  9 11  1  0  0  0  0
 11 12  1  0  0  0  0
 11 13  1  0  0  0  0
 13 14  1  0  0  0  0
 14 15  1  0  0  0  0
 15 16  1  0  0  0  0
 15 17  1  0  0  0  0
 16 18  1  0  0  0  0
 18 19  1  0  0  0  0
 19 20  2  0  0  0  0
 19 21  1  0  0  0  0
 20 22  1  0  0  0  0
 21 23  2  0  0  0  0
 22 24  2  0  0  0  0
  9 10  1  0  0  0  0
 23 24  1  0  0  0  0
M  END

>  <name>
Labetalol

>  <ROTATABLE_BONDCOUNT>
8

>  <HBDScore>
0.0

>  <dipole>
7.28

>  <logD>
1.26

>  <MPOScore>
3.9139999999999997

>  <logDScore>
1.0

>  <MW>
328.412

>  <charge_dist(7.4)>
0.81

>  <CNS>
FALSE

>  <ArRings>
2

>  <HBD>
4

>  <BALABAN_INDEX>
1.58

>  <bpKa>
9.8

>  <TPSAScore>
0.8140000000000001

>  <MWScore>
1.0

>  <bpKaScore>
0.09999999999999964

>  <logPScore>
1.0

>  <MPO_area>
48.26

>  <TPSA>
95.58

>  <logP>
1.89

$$$$

  Mrv1722703221715202D          

 23 24  0  0  0  0            999 V2000
    0.0000    0.0000    0.0000 O   0  0  0  0  0  0  0  0  0  0  0  0
   -0.0195    0.8308    0.0000 C   0  0  2  0  0  0  0  0  0  0  0  0
    0.7140   -0.3895    0.0000 C   0  0  2  0  0  0  0  0  0  0  0  0
   -0.7465    1.2333    0.0000 O   0  0  0  0  0  0  0  0  0  0  0  0
    0.6816    1.2658    0.0000 C   0  0  1  0  0  0  0  0  0  0  0  0
    1.4150    0.0454    0.0000 C   0  0  2  0  0  0  0  0  0  0  0  0
    0.7205   -1.2073    0.0000 C   0  0  0  0  0  0  0  0  0  0  0  0
   -1.4605    0.8114    0.0000 C   0  0  2  0  0  0  0  0  0  0  0  0
    0.6621    2.0966    0.0000 O   0  0  0  0  0  0  0  0  0  0  0  0
    1.3956    0.8763    0.0000 C   0  0  1  0  0  0  0  0  0  0  0  0
    2.1291   -0.3440    0.0000 O   0  0  0  0  0  0  0  0  0  0  0  0
    0.0065   -1.6293    0.0000 O   0  0  0  0  0  0  0  0  0  0  0  0
   -1.5384   -0.0065    0.0000 C   0  0  1  0  0  0  0  0  0  0  0  0
   -2.2264    1.1359    0.0000 C   0  0  1  0  0  0  0  0  0  0  0  0
    2.0966    1.3112    0.0000 O   0  0  0  0  0  0  0  0  0  0  0  0
   -0.9218   -0.5387    0.0000 O   0  0  0  0  0  0  0  0  0  0  0  0
   -2.3498   -0.1883    0.0000 C   0  0  2  0  0  0  0  0  0  0  0  0
   -2.7717    0.5193    0.0000 O   0  0  0  0  0  0  0  0  0  0  0  0
   -2.4212    1.9473    0.0000 C   0  0  0  0  0  0  0  0  0  0  0  0
   -3.1027   -0.5322    0.0000 O   0  0  0  0  0  0  0  0  0  0  0  0
   -2.0836   -0.9607    0.0000 C   0  0  0  0  0  0  0  0  0  0  0  0
   -3.2196    2.1940    0.0000 O   0  0  0  0  0  0  0  0  0  0  0  0
   -2.6289   -1.5773    0.0000 O   0  0  0  0  0  0  0  0  0  0  0  0
  1  2  1  0  0  0  0
  1  3  1  0  0  0  0
  2  4  1  6  0  0  0
  2  5  1  0  0  0  0
  3  6  1  0  0  0  0
  3  7  1  6  0  0  0
  8  4  1  6  0  0  0
  5  9  1  1  0  0  0
  5 10  1  0  0  0  0
  6 11  1  6  0  0  0
  7 12  1  0  0  0  0
  8 13  1  0  0  0  0
  8 14  1  0  0  0  0
 10 15  1  6  0  0  0
 13 16  1  1  0  0  0
 13 17  1  0  0  0  0
 14 18  1  0  0  0  0
 14 19  1  1  0  0  0
 17 20  1  1  0  0  0
 17 21  1  0  0  0  0
 19 22  1  0  0  0  0
 21 23  1  0  0  0  0
  6 10  1  0  0  0  0
 17 18  1  0  0  0  0
M  END

>  <name>
Lactulose

>  <ROTATABLE_BONDCOUNT>
5

>  <HBDScore>
0.0

>  <dipole>
6.10

>  <logD>
-4.53

>  <MPOScore>
4.0

>  <logDScore>
1.0

>  <MW>
342.297

>  <charge_dist(7.4)>
-0.00

>  <CNS>
FALSE

>  <ArRings>
0

>  <HBD>
8

>  <BALABAN_INDEX>
2.13

>  <bpKa>
-2.98

>  <TPSAScore>
0.0

>  <MWScore>
1.0

>  <bpKaScore>
1.0

>  <logPScore>
1.0

>  <MPO_area>
50.0

>  <TPSA>
189.53

>  <logP>
-4.53

$$$$

  Mrv1722703221715202D          

 40 44  0  0  0  0            999 V2000
    0.0000    0.0000    0.0000 Cl  0  0  0  0  0  0  0  0  0  0  0  0
   -0.1101   -0.8095    0.0000 C   0  0  0  0  0  0  0  0  0  0  0  0
    0.5375   -1.3017    0.0000 C   0  0  0  0  0  0  0  0  0  0  0  0
   -0.8743   -1.1204    0.0000 C   0  0  0  0  0  0  0  0  0  0  0  0
    1.2888   -0.9779    0.0000 O   0  0  0  0  0  0  0  0  0  0  0  0
    0.4274   -2.1113    0.0000 C   0  0  0  0  0  0  0  0  0  0  0  0
   -0.9844   -1.9299    0.0000 C   0  0  0  0  0  0  0  0  0  0  0  0
    1.9364   -1.4701    0.0000 C   0  0  0  0  0  0  0  0  0  0  0  0
   -0.3367   -2.4221    0.0000 C   0  0  0  0  0  0  0  0  0  0  0  0
   -1.7486   -2.2407    0.0000 N   0  0  0  0  0  0  0  0  0  0  0  0
    2.6876   -1.1463    0.0000 C   0  0  0  0  0  0  0  0  0  0  0  0
   -1.8587   -3.0503    0.0000 C   0  0  0  0  0  0  0  0  0  0  0  0
    2.7848   -0.3238    0.0000 C   0  0  0  0  0  0  0  0  0  0  0  0
    3.3353   -1.6385    0.0000 C   0  0  0  0  0  0  0  0  0  0  0  0
   -1.2110   -3.5425    0.0000 N   0  0  0  0  0  0  0  0  0  0  0  0
   -2.6229   -3.3612    0.0000 C   0  0  0  0  0  0  0  0  0  0  0  0
    3.5360    0.0000    0.0000 C   0  0  0  0  0  0  0  0  0  0  0  0
    4.0865   -1.3147    0.0000 C   0  0  0  0  0  0  0  0  0  0  0  0
   -1.3212   -4.3520    0.0000 C   0  0  0  0  0  0  0  0  0  0  0  0
   -2.7330   -4.1707    0.0000 C   0  0  0  0  0  0  0  0  0  0  0  0
   -3.2835   -2.8560    0.0000 C   0  0  0  0  0  0  0  0  0  0  0  0
    3.6331    0.8225    0.0000 F   0  0  0  0  0  0  0  0  0  0  0  0
    4.1836   -0.4922    0.0000 C   0  0  0  0  0  0  0  0  0  0  0  0
   -2.0854   -4.6629    0.0000 N   0  0  0  0  0  0  0  0  0  0  0  0
   -3.4971   -4.4815    0.0000 C   0  0  0  0  0  0  0  0  0  0  0  0
   -4.0477   -3.1669    0.0000 C   0  0  0  0  0  0  0  0  0  0  0  0
   -4.1577   -3.9764    0.0000 C   0  0  0  0  0  0  0  0  0  0  0  0
   -4.7082   -2.6617    0.0000 C   0  0  0  0  0  0  0  0  0  0  0  0
   -4.7018   -1.8328    0.0000 O   0  0  0  0  0  0  0  0  0  0  0  0
   -5.5048   -2.8948    0.0000 C   0  0  0  0  0  0  0  0  0  0  0  0
   -5.4853   -1.5543    0.0000 C   0  0  0  0  0  0  0  0  0  0  0  0
   -5.9841   -2.2148    0.0000 C   0  0  0  0  0  0  0  0  0  0  0  0
   -5.7315   -0.7577    0.0000 C   0  0  0  0  0  0  0  0  0  0  0  0
   -5.1745   -0.1490    0.0000 N   0  0  0  0  0  0  0  0  0  0  0  0
   -5.4206    0.6476    0.0000 C   0  0  0  0  0  0  0  0  0  0  0  0
   -4.8636    1.2564    0.0000 C   0  0  0  0  0  0  0  0  0  0  0  0
   -5.1097    2.0530    0.0000 S   0  0  0  0  0  0  0  0  0  0  0  0
   -5.9063    1.8198    0.0000 O   0  0  0  0  0  0  0  0  0  0  0  0
   -4.3261    2.2990    0.0000 O   0  0  0  0  0  0  0  0  0  0  0  0
   -5.3559    2.8495    0.0000 C   0  0  0  0  0  0  0  0  0  0  0  0
  1  2  1  0  0  0  0
  2  3  2  0  0  0  0
  2  4  1  0  0  0  0
  3  5  1  0  0  0  0
  3  6  1  0  0  0  0
  4  7  2  0  0  0  0
  5  8  1  0  0  0  0
  6  9  2  0  0  0  0
  7 10  1  0  0  0  0
  8 11  1  0  0  0  0
 10 12  1  0  0  0  0
 11 13  2  0  0  0  0
 11 14  1  0  0  0  0
 12 15  2  0  0  0  0
 12 16  1  0  0  0  0
 13 17  1  0  0  0  0
 14 18  2  0  0  0  0
 15 19  1  0  0  0  0
 16 20  2  0  0  0  0
 16 21  1  0  0  0  0
 17 22  1  0  0  0  0
 17 23  2  0  0  0  0
 19 24  2  0  0  0  0
 20 25  1  0  0  0  0
 21 26  2  0  0  0  0
 25 27  2  0  0  0  0
 26 28  1  0  0  0  0
 28 29  1  0  0  0  0
 28 30  2  0  0  0  0
 29 31  1  0  0  0  0
 30 32  1  0  0  0  0
 31 33  1  0  0  0  0
 33 34  1  0  0  0  0
 34 35  1  0  0  0  0
 35 36  1  0  0  0  0
 36 37  1  0  0  0  0
 37 38  2  0  0  0  0
 37 39  2  0  0  0  0
 37 40  1  0  0  0  0
  7  9  1  0  0  0  0
 18 23  1  0  0  0  0
 20 24  1  0  0  0  0
 26 27  1  0  0  0  0
 31 32  2  0  0  0  0
M  END

>  <name>
Lapatinib

>  <ROTATABLE_BONDCOUNT>
11

>  <HBDScore>
0.5

>  <dipole>
11.53

>  <logD>
4.40

>  <MPOScore>
2.1350000000000002

>  <logDScore>
0.0

>  <MW>
581.06

>  <charge_dist(7.4)>
0.42

>  <CNS>
FALSE

>  <ArRings>
5

>  <HBD>
2

>  <BALABAN_INDEX>
1.00

>  <bpKa>
7.26

>  <TPSAScore>
0.4550000000000002

>  <MWScore>
0.0

>  <bpKaScore>
1.0

>  <logPScore>
0.18000000000000016

>  <MPO_area>
13.49

>  <TPSA>
106.35

>  <logP>
4.64

$$$$

  Mrv1722703221715202D          

 30 33  0  0  0  0            999 V2000
    0.0000    0.0000    0.0000 Cl  0  0  0  0  0  0  0  0  0  0  0  0
    0.5700   -0.5890    0.0000 C   0  0  0  0  0  0  0  0  0  0  0  0
    0.3357   -1.3807    0.0000 C   0  0  0  0  0  0  0  0  0  0  0  0
    1.3681   -0.3800    0.0000 C   0  0  0  0  0  0  0  0  0  0  0  0
   -0.4750   -1.5771    0.0000 N   0  0  0  0  0  0  0  0  0  0  0  0
    0.9057   -1.9697    0.0000 C   0  0  0  0  0  0  0  0  0  0  0  0
    1.9381   -0.9690    0.0000 C   0  0  0  0  0  0  0  0  0  0  0  0
   -1.0577   -0.9754    0.0000 C   0  0  0  0  0  0  0  0  0  0  0  0
    1.7037   -1.7608    0.0000 C   0  0  0  0  0  0  0  0  0  0  0  0
    2.7362   -0.7600    0.0000 O   0  0  0  0  0  0  0  0  0  0  0  0
   -0.8360   -0.1710    0.0000 O   0  0  0  0  0  0  0  0  0  0  0  0
   -1.8684   -1.1717    0.0000 N   0  0  0  0  0  0  0  0  0  0  0  0
    3.3062   -1.3491    0.0000 C   0  0  0  0  0  0  0  0  0  0  0  0
   -2.4511   -0.5700    0.0000 C   0  0  0  0  0  0  0  0  0  0  0  0
    4.1042   -1.1401    0.0000 C   0  0  0  0  0  0  0  0  0  0  0  0
    3.0718   -2.1408    0.0000 C   0  0  0  0  0  0  0  0  0  0  0  0
   -2.6601    0.2407    0.0000 C   0  0  0  0  0  0  0  0  0  0  0  0
   -3.2555   -0.3357    0.0000 C   0  0  0  0  0  0  0  0  0  0  0  0
    4.6742   -1.7291    0.0000 C   0  0  0  0  0  0  0  0  0  0  0  0
    4.3259   -0.3357    0.0000 C   0  0  0  0  0  0  0  0  0  0  0  0
    3.6419   -2.7298    0.0000 C   0  0  0  0  0  0  0  0  0  0  0  0
    4.4399   -2.5208    0.0000 N   0  0  0  0  0  0  0  0  0  0  0  0
    5.4723   -1.5201    0.0000 C   0  0  0  0  0  0  0  0  0  0  0  0
    5.1240   -0.1267    0.0000 C   0  0  0  0  0  0  0  0  0  0  0  0
    5.6940   -0.7157    0.0000 C   0  0  0  0  0  0  0  0  0  0  0  0
    5.3456    0.6777    0.0000 C   0  0  0  0  0  0  0  0  0  0  0  0
    6.4920   -0.5067    0.0000 O   0  0  0  0  0  0  0  0  0  0  0  0
    4.7629    1.2794    0.0000 O   0  0  0  0  0  0  0  0  0  0  0  0
    6.1436    0.8867    0.0000 N   0  0  0  0  0  0  0  0  0  0  0  0
    7.0620   -1.0957    0.0000 C   0  0  0  0  0  0  0  0  0  0  0  0
  1  2  1  0  0  0  0
  2  3  2  0  0  0  0
  2  4  1  0  0  0  0
  3  5  1  0  0  0  0
  3  6  1  0  0  0  0
  4  7  2  0  0  0  0
  5  8  1  0  0  0  0
  6  9  2  0  0  0  0
  7 10  1  0  0  0  0
  8 11  2  0  0  0  0
  8 12  1  0  0  0  0
 10 13  1  0  0  0  0
 12 14  1  0  0  0  0
 13 15  1  0  0  0  0
 13 16  2  0  0  0  0
 14 17  1  0  0  0  0
 14 18  1  0  0  0  0
 15 19  2  0  0  0  0
 15 20  1  0  0  0  0
 16 21  1  0  0  0  0
 19 22  1  0  0  0  0
 19 23  1  0  0  0  0
 20 24  2  0  0  0  0
 23 25  2  0  0  0  0
 24 26  1  0  0  0  0
 25 27  1  0  0  0  0
 26 28  2  0  0  0  0
 26 29  1  0  0  0  0
 27 30  1  0  0  0  0
  7  9  1  0  0  0  0
 17 18  1  0  0  0  0
 21 22  2  0  0  0  0
 24 25  1  0  0  0  0
M  END

>  <name>
Lenvatinib

>  <ROTATABLE_BONDCOUNT>
6

>  <HBDScore>
0.16666666666666674

>  <dipole>
6.60

>  <logD>
2.52

>  <MPOScore>
3.576761904761905

>  <logDScore>
0.74

>  <MW>
426.86

>  <charge_dist(7.4)>
0.01

>  <CNS>
FALSE

>  <ArRings>
3

>  <HBD>
3

>  <BALABAN_INDEX>
1.17

>  <bpKa>
5.4

>  <TPSAScore>
0.14766666666666695

>  <MWScore>
0.5224285714285714

>  <bpKaScore>
1.0

>  <logPScore>
1.0

>  <MPO_area>
39.77

>  <TPSA>
115.57

>  <logP>
2.52

$$$$

  Mrv1722703221715202D          

 26 29  0  0  0  0            999 V2000
    0.0000    0.0000    0.0000 F   0  0  0  0  0  0  0  0  0  0  0  0
    0.5217   -0.6312    0.0000 C   0  0  0  0  0  0  0  0  0  0  0  0
    0.2254   -1.4041    0.0000 C   0  0  0  0  0  0  0  0  0  0  0  0
    1.3333   -0.4831    0.0000 C   0  0  0  0  0  0  0  0  0  0  0  0
   -0.5990   -1.5394    0.0000 N   0  0  0  0  0  0  0  0  0  0  0  0
    0.7471   -2.0353    0.0000 C   0  0  0  0  0  0  0  0  0  0  0  0
    1.8550   -1.1143    0.0000 C   0  0  0  0  0  0  0  0  0  0  0  0
   -1.1336   -0.8953    0.0000 C   0  0  0  0  0  0  0  0  0  0  0  0
   -0.8953   -2.3123    0.0000 C   0  0  0  0  0  0  0  0  0  0  0  0
    0.4509   -2.8083    0.0000 O   0  0  0  0  0  0  0  0  0  0  0  0
    1.5587   -1.8872    0.0000 C   0  0  0  0  0  0  0  0  0  0  0  0
    2.6665   -0.9661    0.0000 C   0  0  0  0  0  0  0  0  0  0  0  0
   -1.9581   -1.0306    0.0000 C   0  0  0  0  0  0  0  0  0  0  0  0
   -1.7198   -2.4476    0.0000 C   0  0  0  0  0  0  0  0  0  0  0  0
    0.9726   -3.4395    0.0000 C   0  0  0  0  0  0  0  0  0  0  0  0
    2.0804   -2.5184    0.0000 N   0  0  0  0  0  0  0  0  0  0  0  0
    2.9500   -0.1803    0.0000 O   0  0  0  0  0  0  0  0  0  0  0  0
    3.1883   -1.5974    0.0000 C   0  0  0  0  0  0  0  0  0  0  0  0
   -2.2543   -1.8035    0.0000 N   0  0  0  0  0  0  0  0  0  0  0  0
    1.7842   -3.2914    0.0000 C   0  0  1  0  0  0  0  0  0  0  0  0
    2.8920   -2.3703    0.0000 C   0  0  0  0  0  0  0  0  0  0  0  0
    3.9998   -1.4492    0.0000 C   0  0  0  0  0  0  0  0  0  0  0  0
   -3.0788   -1.9388    0.0000 C   0  0  0  0  0  0  0  0  0  0  0  0
    2.3059   -3.9226    0.0000 C   0  0  0  0  0  0  0  0  0  0  0  0
    4.2833   -0.6634    0.0000 O   0  0  0  0  0  0  0  0  0  0  0  0
    4.5216   -2.0804    0.0000 O   0  0  0  0  0  0  0  0  0  0  0  0
  1  2  1  0  0  0  0
  2  3  2  0  0  0  0
  2  4  1  0  0  0  0
  3  5  1  0  0  0  0
  3  6  1  0  0  0  0
  4  7  2  0  0  0  0
  5  8  1  0  0  0  0
  5  9  1  0  0  0  0
  6 10  1  0  0  0  0
  6 11  2  0  0  0  0
  7 12  1  0  0  0  0
  8 13  1  0  0  0  0
  9 14  1  0  0  0  0
 10 15  1  0  0  0  0
 11 16  1  0  0  0  0
 12 17  2  0  0  0  0
 12 18  1  0  0  0  0
 13 19  1  0  0  0  0
 15 20  1  0  0  0  0
 16 21  1  0  0  0  0
 18 22  1  0  0  0  0
 19 23  1  0  0  0  0
 20 24  1  1  0  0  0
 22 25  2  0  0  0  0
 22 26  1  0  0  0  0
  7 11  1  0  0  0  0
 14 19  1  0  0  0  0
 16 20  1  0  0  0  0
 18 21  2  0  0  0  0
M  END

>  <name>
Levofloxacin

>  <ROTATABLE_BONDCOUNT>
2

>  <HBDScore>
0.8333333333333334

>  <dipole>
16.06

>  <logD>
-0.28

>  <MPOScore>
5.823526190476191

>  <logDScore>
1.0

>  <MW>
361.373

>  <charge_dist(7.4)>
-0.91

>  <CNS>
FALSE

>  <ArRings>
2

>  <HBD>
1

>  <BALABAN_INDEX>
1.38

>  <bpKa>
6.2

>  <TPSAScore>
1.0

>  <MWScore>
0.9901928571428572

>  <bpKaScore>
1.0

>  <logPScore>
1.0

>  <MPO_area>
94.14

>  <TPSA>
73.32

>  <logP>
0.65

$$$$

  Mrv1722703221715202D          

 35 39  0  0  0  0            999 V2000
    0.0000    0.0000    0.0000 O   0  0  0  0  0  0  0  0  0  0  0  0
   -0.7589   -0.3216    0.0000 C   0  0  0  0  0  0  0  0  0  0  0  0
   -0.8619   -1.1320    0.0000 N   0  0  0  0  0  0  0  0  0  0  0  0
   -1.4214    0.1737    0.0000 N   0  0  0  0  0  0  0  0  0  0  0  0
   -1.6209   -1.4536    0.0000 C   0  0  0  0  0  0  0  0  0  0  0  0
   -0.2123   -1.6144    0.0000 C   0  0  0  0  0  0  0  0  0  0  0  0
   -2.1804   -0.1479    0.0000 C   0  0  0  0  0  0  0  0  0  0  0  0
   -1.3314    0.9970    0.0000 C   0  0  0  0  0  0  0  0  0  0  0  0
   -1.7238   -2.2640    0.0000 O   0  0  0  0  0  0  0  0  0  0  0  0
   -2.2833   -0.9583    0.0000 C   0  0  0  0  0  0  0  0  0  0  0  0
    0.5339   -1.2799    0.0000 C   0  0  0  0  0  0  0  0  0  0  0  0
   -2.9329    0.1994    0.0000 N   0  0  0  0  0  0  0  0  0  0  0  0
   -3.0937   -1.1127    0.0000 N   0  0  0  0  0  0  0  0  0  0  0  0
    1.1835   -1.7624    0.0000 N   0  0  0  0  0  0  0  0  0  0  0  0
    0.6239   -0.4566    0.0000 N   0  0  0  0  0  0  0  0  0  0  0  0
   -3.4925   -0.3988    0.0000 C   0  0  0  0  0  0  0  0  0  0  0  0
   -3.4411   -1.8524    0.0000 C   0  0  0  0  0  0  0  0  0  0  0  0
    1.9296   -1.4279    0.0000 C   0  0  0  0  0  0  0  0  0  0  0  0
    1.3700   -0.1222    0.0000 C   0  0  0  0  0  0  0  0  0  0  0  0
   -4.3158   -0.2958    0.0000 N   0  0  0  0  0  0  0  0  0  0  0  0
   -4.2643   -1.9232    0.0000 C   0  0  0  0  0  0  0  0  0  0  0  0
    2.0196   -0.6046    0.0000 C   0  0  0  0  0  0  0  0  0  0  0  0
    2.5792   -1.9103    0.0000 C   0  0  0  0  0  0  0  0  0  0  0  0
    1.4601    0.7011    0.0000 C   0  0  0  0  0  0  0  0  0  0  0  0
   -4.8111   -0.9455    0.0000 C   0  0  0  0  0  0  0  0  0  0  0  0
   -4.6503    0.4631    0.0000 C   0  0  0  0  0  0  0  0  0  0  0  0
   -5.0876   -1.9939    0.0000 C   0  0  0  0  0  0  0  0  0  0  0  0
    2.7657   -0.2702    0.0000 C   0  0  0  0  0  0  0  0  0  0  0  0
    3.3253   -1.5758    0.0000 C   0  0  0  0  0  0  0  0  0  0  0  0
   -5.6344   -0.8426    0.0000 C   0  0  1  0  0  0  0  0  0  0  0  0
   -5.4735    0.5660    0.0000 C   0  0  0  0  0  0  0  0  0  0  0  0
   -5.9109   -2.0646    0.0000 C   0  0  0  0  0  0  0  0  0  0  0  0
    3.4154   -0.7525    0.0000 C   0  0  0  0  0  0  0  0  0  0  0  0
   -6.1296   -1.4922    0.0000 N   0  0  0  0  0  0  0  0  0  0  0  0
   -5.9688   -0.0836    0.0000 C   0  0  0  0  0  0  0  0  0  0  0  0
  1  2  2  0  0  0  0
  2  3  1  0  0  0  0
  2  4  1  0  0  0  0
  3  5  1  0  0  0  0
  3  6  1  0  0  0  0
  4  7  1  0  0  0  0
  4  8  1  0  0  0  0
  5  9  2  0  0  0  0
  5 10  1  0  0  0  0
  6 11  1  0  0  0  0
  7 12  1  0  0  0  0
 10 13  1  0  0  0  0
 11 14  2  0  0  0  0
 11 15  1  0  0  0  0
 12 16  2  0  0  0  0
 13 17  1  0  0  0  0
 14 18  1  0  0  0  0
 15 19  2  0  0  0  0
 16 20  1  0  0  0  0
 17 21  1  0  0  0  0
 18 22  2  0  0  0  0
 18 23  1  0  0  0  0
 19 24  1  0  0  0  0
 20 25  1  0  0  0  0
 20 26  1  0  0  0  0
 21 27  3  0  0  0  0
 22 28  1  0  0  0  0
 23 29  2  0  0  0  0
 25 30  1  0  0  0  0
 26 31  1  0  0  0  0
 27 32  1  0  0  0  0
 28 33  2  0  0  0  0
 30 34  1  1  0  0  0
 30 35  1  0  0  0  0
  7 10  2  0  0  0  0
 13 16  1  0  0  0  0
 19 22  1  0  0  0  0
 29 33  1  0  0  0  0
 31 35  1  0  0  0  0
M  END

>  <name>
Linagliptin

>  <ROTATABLE_BONDCOUNT>
5

>  <HBDScore>
0.8333333333333334

>  <dipole>
6.58

>  <logD>
0.41

>  <MPOScore>
3.316716666666667

>  <logDScore>
1.0

>  <MW>
472.553

>  <charge_dist(7.4)>
1.00

>  <CNS>
FALSE

>  <ArRings>
4

>  <HBD>
1

>  <BALABAN_INDEX>
1.22

>  <bpKa>
9.86

>  <TPSAScore>
0.21733333333333316

>  <MWScore>
0.19605000000000006

>  <bpKaScore>
0.07000000000000028

>  <logPScore>
1.0

>  <MPO_area>
35.68

>  <TPSA>
113.48

>  <logP>
2.80

$$$$

  Mrv1722703221715202D          

 24 26  0  0  0  0            999 V2000
    0.0000    0.0000    0.0000 F   0  0  0  0  0  0  0  0  0  0  0  0
   -0.3425    0.7561    0.0000 C   0  0  0  0  0  0  0  0  0  0  0  0
    0.1292    1.4281    0.0000 C   0  0  0  0  0  0  0  0  0  0  0  0
   -1.1632    0.8465    0.0000 C   0  0  0  0  0  0  0  0  0  0  0  0
    0.9370    1.3506    0.0000 N   0  0  0  0  0  0  0  0  0  0  0  0
   -0.2133    2.1842    0.0000 C   0  0  0  0  0  0  0  0  0  0  0  0
   -1.5057    1.6026    0.0000 C   0  0  0  0  0  0  0  0  0  0  0  0
    1.2666    0.6075    0.0000 C   0  0  0  0  0  0  0  0  0  0  0  0
    1.4088    2.0226    0.0000 C   0  0  0  0  0  0  0  0  0  0  0  0
   -1.0339    2.2747    0.0000 C   0  0  0  0  0  0  0  0  0  0  0  0
   -2.3264    1.6931    0.0000 N   0  0  0  0  0  0  0  0  0  0  0  0
    2.0743    0.5299    0.0000 C   0  0  0  0  0  0  0  0  0  0  0  0
    2.2165    1.9451    0.0000 C   0  0  0  0  0  0  0  0  0  0  0  0
   -2.7464    2.4104    0.0000 C   0  0  0  0  0  0  0  0  0  0  0  0
   -2.8821    1.0856    0.0000 C   0  0  0  0  0  0  0  0  0  0  0  0
    2.5461    1.2019    0.0000 O   0  0  0  0  0  0  0  0  0  0  0  0
   -2.4233    3.1664    0.0000 O   0  0  0  0  0  0  0  0  0  0  0  0
   -3.5542    2.2424    0.0000 O   0  0  0  0  0  0  0  0  0  0  0  0
   -3.6382    1.4216    0.0000 C   0  0  1  0  0  0  0  0  0  0  0  0
   -4.3555    1.0146    0.0000 C   0  0  0  0  0  0  0  0  0  0  0  0
   -5.0728    1.4281    0.0000 N   0  0  0  0  0  0  0  0  0  0  0  0
   -5.7900    1.0210    0.0000 C   0  0  0  0  0  0  0  0  0  0  0  0
   -5.7900    0.2068    0.0000 O   0  0  0  0  0  0  0  0  0  0  0  0
   -6.5073    1.4346    0.0000 C   0  0  0  0  0  0  0  0  0  0  0  0
  1  2  1  0  0  0  0
  2  3  2  0  0  0  0
  2  4  1  0  0  0  0
  3  5  1  0  0  0  0
  3  6  1  0  0  0  0
  4  7  2  0  0  0  0
  5  8  1  0  0  0  0
  5  9  1  0  0  0  0
  6 10  2  0  0  0  0
  7 11  1  0  0  0  0
  8 12  1  0  0  0  0
  9 13  1  0  0  0  0
 11 14  1  0  0  0  0
 11 15  1  0  0  0  0
 12 16  1  0  0  0  0
 14 17  2  0  0  0  0
 14 18  1  0  0  0  0
 15 19  1  0  0  0  0
 19 20  1  6  0  0  0
 20 21  1  0  0  0  0
 21 22  1  0  0  0  0
 22 23  2  0  0  0  0
 22 24  1  0  0  0  0
  7 10  1  0  0  0  0
 13 16  1  0  0  0  0
 18 19  1  0  0  0  0
M  END

>  <name>
Linezolid

>  <ROTATABLE_BONDCOUNT>
4

>  <HBDScore>
0.8333333333333334

>  <dipole>
9.27

>  <logD>
0.64

>  <MPOScore>
5.833333333333333

>  <logDScore>
1.0

>  <MW>
337.351

>  <charge_dist(7.4)>
-0.00

>  <CNS>
FALSE

>  <ArRings>
1

>  <HBD>
1

>  <BALABAN_INDEX>
1.38

>  <bpKa>
-1.16

>  <TPSAScore>
1.0

>  <MWScore>
1.0

>  <bpKaScore>
1.0

>  <logPScore>
1.0

>  <MPO_area>
94.44

>  <TPSA>
71.11

>  <logP>
0.64

$$$$

  Mrv1722703221715202D          

 29 30  0  0  0  0            999 V2000
    0.0000    0.0000    0.0000 O   0  0  0  0  0  0  0  0  0  0  0  0
    0.5084    0.6584    0.0000 C   0  0  0  0  0  0  0  0  0  0  0  0
    0.1956    1.4341    0.0000 O   0  0  0  0  0  0  0  0  0  0  0  0
    1.3233    0.5476    0.0000 C   0  0  1  0  0  0  0  0  0  0  0  0
    1.7013   -0.1825    0.0000 N   0  0  0  0  0  0  0  0  0  0  0  0
    1.8969    1.1473    0.0000 C   0  0  0  0  0  0  0  0  0  0  0  0
    1.3298   -0.9191    0.0000 C   0  0  0  0  0  0  0  0  0  0  0  0
    2.5096   -0.0326    0.0000 C   0  0  0  0  0  0  0  0  0  0  0  0
    2.6335    0.7888    0.0000 C   0  0  0  0  0  0  0  0  0  0  0  0
    0.4954   -0.9712    0.0000 O   0  0  0  0  0  0  0  0  0  0  0  0
    1.7861   -1.6035    0.0000 C   0  0  1  0  0  0  0  0  0  0  0  0
    2.6074   -1.5384    0.0000 N   0  0  0  0  0  0  0  0  0  0  0  0
    1.4145   -2.3402    0.0000 C   0  0  0  0  0  0  0  0  0  0  0  0
    3.0637   -2.2228    0.0000 C   0  0  2  0  0  0  0  0  0  0  0  0
    0.5801   -2.3923    0.0000 C   0  0  0  0  0  0  0  0  0  0  0  0
    2.6922   -2.9594    0.0000 C   0  0  0  0  0  0  0  0  0  0  0  0
    3.8850   -2.1576    0.0000 C   0  0  0  0  0  0  0  0  0  0  0  0
    0.2086   -3.1289    0.0000 C   0  0  0  0  0  0  0  0  0  0  0  0
    3.1484   -3.6438    0.0000 O   0  0  0  0  0  0  0  0  0  0  0  0
    1.8578   -3.0115    0.0000 O   0  0  0  0  0  0  0  0  0  0  0  0
    4.2436   -1.4080    0.0000 C   0  0  0  0  0  0  0  0  0  0  0  0
   -0.6258   -3.1811    0.0000 C   0  0  0  0  0  0  0  0  0  0  0  0
    5.0649   -1.3428    0.0000 C   0  0  0  0  0  0  0  0  0  0  0  0
   -0.9973   -3.9176    0.0000 N   0  0  0  0  0  0  0  0  0  0  0  0
    5.4234   -0.5932    0.0000 C   0  0  0  0  0  0  0  0  0  0  0  0
    5.5212   -2.0273    0.0000 C   0  0  0  0  0  0  0  0  0  0  0  0
    6.2448   -0.5280    0.0000 C   0  0  0  0  0  0  0  0  0  0  0  0
    6.3425   -1.9621    0.0000 C   0  0  0  0  0  0  0  0  0  0  0  0
    6.7010   -1.2124    0.0000 C   0  0  0  0  0  0  0  0  0  0  0  0
  1  2  2  0  0  0  0
  2  3  1  0  0  0  0
  4  2  1  6  0  0  0
  4  5  1  0  0  0  0
  4  6  1  0  0  0  0
  5  7  1  0  0  0  0
  5  8  1  0  0  0  0
  6  9  1  0  0  0  0
  7 10  2  0  0  0  0
  7 11  1  0  0  0  0
 11 12  1  1  0  0  0
 11 13  1  0  0  0  0
 14 12  1  1  0  0  0
 13 15  1  0  0  0  0
 14 16  1  0  0  0  0
 14 17  1  0  0  0  0
 15 18  1  0  0  0  0
 16 19  2  0  0  0  0
 16 20  1  0  0  0  0
 17 21  1  0  0  0  0
 18 22  1  0  0  0  0
 21 23  1  0  0  0  0
 22 24  1  0  0  0  0
 23 25  2  0  0  0  0
 23 26  1  0  0  0  0
 25 27  1  0  0  0  0
 26 28  2  0  0  0  0
 27 29  2  0  0  0  0
  8  9  1  0  0  0  0
 28 29  1  0  0  0  0
M  END

>  <name>
Lisinopril

>  <ROTATABLE_BONDCOUNT>
12

>  <HBDScore>
0.0

>  <dipole>
5.34

>  <logD>
-3.18

>  <MPOScore>
2.6750357142857144

>  <logDScore>
1.0

>  <MW>
405.495

>  <charge_dist(7.4)>
-0.01

>  <CNS>
FALSE

>  <ArRings>
1

>  <HBD>
4

>  <BALABAN_INDEX>
1.99

>  <bpKa>
10.21

>  <TPSAScore>
0.0

>  <MWScore>
0.6750357142857142

>  <bpKaScore>
0.0

>  <logPScore>
1.0

>  <MPO_area>
27.92

>  <TPSA>
132.96

>  <logP>
-3.10

$$$$

  Mrv1722703221715202D          

 50 55  0  0  0  0            999 V2000
    0.0000    0.0000    0.0000 F   0  0  0  0  0  0  0  0  0  0  0  0
   -0.0326   -0.8225    0.0000 C   0  0  0  0  0  0  0  0  0  0  0  0
    0.7898   -0.8420    0.0000 F   0  0  0  0  0  0  0  0  0  0  0  0
   -0.8681   -0.7898    0.0000 F   0  0  0  0  0  0  0  0  0  0  0  0
   -0.0653   -1.6449    0.0000 C   0  0  0  0  0  0  0  0  0  0  0  0
    0.6331   -2.0757    0.0000 C   0  0  0  0  0  0  0  0  0  0  0  0
   -0.8028   -2.0300    0.0000 C   0  0  0  0  0  0  0  0  0  0  0  0
    0.6005   -2.8981    0.0000 C   0  0  0  0  0  0  0  0  0  0  0  0
   -0.8355   -2.8524    0.0000 C   0  0  0  0  0  0  0  0  0  0  0  0
   -0.1371   -3.2833    0.0000 C   0  0  0  0  0  0  0  0  0  0  0  0
   -0.1697   -4.1057    0.0000 C   0  0  0  0  0  0  0  0  0  0  0  0
    0.5287   -4.5365    0.0000 C   0  0  0  0  0  0  0  0  0  0  0  0
   -0.9073   -4.4908    0.0000 C   0  0  0  0  0  0  0  0  0  0  0  0
    1.2532   -4.1383    0.0000 C   0  0  0  0  0  0  0  0  0  0  0  0
    0.4961   -5.3590    0.0000 C   0  0  0  0  0  0  0  0  0  0  0  0
   -0.9400   -5.3133    0.0000 C   0  0  0  0  0  0  0  0  0  0  0  0
    1.2728   -3.3028    0.0000 O   0  0  0  0  0  0  0  0  0  0  0  0
    1.9517   -4.5691    0.0000 N   0  0  0  0  0  0  0  0  0  0  0  0
   -0.2415   -5.7440    0.0000 C   0  0  0  0  0  0  0  0  0  0  0  0
    2.6762   -4.1710    0.0000 C   0  0  0  0  0  0  0  0  0  0  0  0
    3.3746   -4.6018    0.0000 C   0  0  0  0  0  0  0  0  0  0  0  0
    2.6958   -3.3355    0.0000 C   0  0  0  0  0  0  0  0  0  0  0  0
    4.0992   -4.2036    0.0000 C   0  0  0  0  0  0  0  0  0  0  0  0
    3.4203   -2.9373    0.0000 C   0  0  0  0  0  0  0  0  0  0  0  0
    4.1187   -3.3681    0.0000 N   0  0  0  0  0  0  0  0  0  0  0  0
    4.8433   -2.9699    0.0000 C   0  0  0  0  0  0  0  0  0  0  0  0
    5.5417   -3.4008    0.0000 C   0  0  0  0  0  0  0  0  0  0  0  0
    6.2662   -3.0026    0.0000 C   0  0  0  0  0  0  0  0  0  0  0  0
    6.9647   -3.4334    0.0000 C   0  0  0  0  0  0  0  0  0  0  0  0
    7.6892   -3.0352    0.0000 C   0  0  0  0  0  0  0  0  0  0  0  0
    7.9960   -3.7989    0.0000 C   0  0  0  0  0  0  0  0  0  0  0  0
    8.3158   -2.4934    0.0000 C   0  0  0  0  0  0  0  0  0  0  0  0
    7.2192   -2.3433    0.0000 C   0  0  0  0  0  0  0  0  0  0  0  0
    8.8184   -3.7337    0.0000 C   0  0  0  0  0  0  0  0  0  0  0  0
    7.6305   -4.5365    0.0000 C   0  0  0  0  0  0  0  0  0  0  0  0
    9.0142   -2.9243    0.0000 C   0  0  0  0  0  0  0  0  0  0  0  0
    8.3354   -1.6579    0.0000 C   0  0  0  0  0  0  0  0  0  0  0  0
    7.5717   -1.5927    0.0000 O   0  0  0  0  0  0  0  0  0  0  0  0
    6.3837   -2.3955    0.0000 N   0  0  0  0  0  0  0  0  0  0  0  0
    9.2754   -4.4125    0.0000 C   0  0  0  0  0  0  0  0  0  0  0  0
    8.0874   -5.2153    0.0000 C   0  0  0  0  0  0  0  0  0  0  0  0
    9.7388   -2.5261    0.0000 C   0  0  0  0  0  0  0  0  0  0  0  0
    9.0599   -1.2598    0.0000 C   0  0  0  0  0  0  0  0  0  0  0  0
    5.9138   -1.7037    0.0000 C   0  0  0  0  0  0  0  0  0  0  0  0
    8.9098   -5.1501    0.0000 C   0  0  0  0  0  0  0  0  0  0  0  0
    9.7584   -1.6906    0.0000 C   0  0  0  0  0  0  0  0  0  0  0  0
    5.0783   -1.7559    0.0000 C   0  0  0  0  0  0  0  0  0  0  0  0
    4.2428   -1.8081    0.0000 F   0  0  0  0  0  0  0  0  0  0  0  0
    5.0130   -0.9203    0.0000 F   0  0  0  0  0  0  0  0  0  0  0  0
    5.1305   -2.5783    0.0000 F   0  0  0  0  0  0  0  0  0  0  0  0
  1  2  1  0  0  0  0
  2  3  1  0  0  0  0
  2  4  1  0  0  0  0
  2  5  1  0  0  0  0
  5  6  2  0  0  0  0
  5  7  1  0  0  0  0
  6  8  1  0  0  0  0
  7  9  2  0  0  0  0
  8 10  2  0  0  0  0
 10 11  1  0  0  0  0
 11 12  2  0  0  0  0
 11 13  1  0  0  0  0
 12 14  1  0  0  0  0
 12 15  1  0  0  0  0
 13 16  2  0  0  0  0
 14 17  2  0  0  0  0
 14 18  1  0  0  0  0
 15 19  2  0  0  0  0
 18 20  1  0  0  0  0
 20 21  1  0  0  0  0
 20 22  1  0  0  0  0
 21 23  1  0  0  0  0
 22 24  1  0  0  0  0
 23 25  1  0  0  0  0
 25 26  1  0  0  0  0
 26 27  1  0  0  0  0
 27 28  1  0  0  0  0
 28 29  1  0  0  0  0
 29 30  1  0  0  0  0
 30 31  1  0  0  0  0
 30 32  1  0  0  0  0
 30 33  1  0  0  0  0
 31 34  2  0  0  0  0
 31 35  1  0  0  0  0
 32 36  2  0  0  0  0
 32 37  1  0  0  0  0
 33 38  2  0  0  0  0
 33 39  1  0  0  0  0
 34 40  1  0  0  0  0
 35 41  2  0  0  0  0
 36 42  1  0  0  0  0
 37 43  2  0  0  0  0
 39 44  1  0  0  0  0
 40 45  2  0  0  0  0
 42 46  2  0  0  0  0
 44 47  1  0  0  0  0
 47 48  1  0  0  0  0
 47 49  1  0  0  0  0
 47 50  1  0  0  0  0
  9 10  1  0  0  0  0
 16 19  1  0  0  0  0
 24 25  1  0  0  0  0
 34 36  1  0  0  0  0
 41 45  1  0  0  0  0
 43 46  1  0  0  0  0
M  END

>  <name>
Lomitapide

>  <ROTATABLE_BONDCOUNT>
12

>  <HBDScore>
0.5

>  <dipole>
6.19

>  <logD>
6.25

>  <MPOScore>
1.9749999999999996

>  <logDScore>
0.0

>  <MW>
693.734

>  <charge_dist(7.4)>
0.98

>  <CNS>
FALSE

>  <ArRings>
4

>  <HBD>
2

>  <BALABAN_INDEX>
0.87

>  <bpKa>
9.05

>  <TPSAScore>
1.0

>  <MWScore>
0.0

>  <bpKaScore>
0.47499999999999964

>  <logPScore>
0.0

>  <MPO_area>
12.29

>  <TPSA>
61.44

>  <logP>
7.90

$$$$

  Mrv1722703221715202D          

 34 37  0  0  0  0            999 V2000
    0.0000    0.0000    0.0000 Cl  0  0  0  0  0  0  0  0  0  0  0  0
    0.6350    0.5302    0.0000 C   0  0  0  0  0  0  0  0  0  0  0  0
    0.4975    1.3550    0.0000 C   0  0  0  0  0  0  0  0  0  0  0  0
    1.4074    0.2422    0.0000 C   0  0  0  0  0  0  0  0  0  0  0  0
    1.1325    1.8853    0.0000 C   0  0  0  0  0  0  0  0  0  0  0  0
    2.0424    0.7725    0.0000 C   0  0  0  0  0  0  0  0  0  0  0  0
    1.9049    1.5972    0.0000 C   0  0  0  0  0  0  0  0  0  0  0  0
    2.5399    2.1275    0.0000 C   0  0  0  0  0  0  0  0  0  0  0  0
    1.9049    2.6773    0.0000 O   0  0  0  0  0  0  0  0  0  0  0  0
    2.9392    1.4074    0.0000 C   0  0  0  0  0  0  0  0  0  0  0  0
    2.9588    2.8476    0.0000 C   0  0  0  0  0  0  0  0  0  0  0  0
    3.7640    1.4009    0.0000 C   0  0  0  0  0  0  0  0  0  0  0  0
    3.7836    2.8410    0.0000 C   0  0  0  0  0  0  0  0  0  0  0  0
    4.1829    2.1209    0.0000 N   0  0  0  0  0  0  0  0  0  0  0  0
    5.0078    2.1144    0.0000 C   0  0  0  0  0  0  0  0  0  0  0  0
    5.4071    1.3943    0.0000 C   0  0  0  0  0  0  0  0  0  0  0  0
    6.2319    1.3878    0.0000 C   0  0  0  0  0  0  0  0  0  0  0  0
    7.0567    1.3812    0.0000 C   0  0  0  0  0  0  0  0  0  0  0  0
    6.2122    0.5630    0.0000 C   0  0  0  0  0  0  0  0  0  0  0  0
    6.2384    2.2257    0.0000 C   0  0  0  0  0  0  0  0  0  0  0  0
    7.4756    2.1013    0.0000 C   0  0  0  0  0  0  0  0  0  0  0  0
    7.4560    0.6612    0.0000 C   0  0  0  0  0  0  0  0  0  0  0  0
    5.4791    0.1636    0.0000 C   0  0  0  0  0  0  0  0  0  0  0  0
    6.9192    0.1440    0.0000 C   0  0  0  0  0  0  0  0  0  0  0  0
    5.5184    2.6577    0.0000 O   0  0  0  0  0  0  0  0  0  0  0  0
    6.9585    2.6381    0.0000 N   0  0  0  0  0  0  0  0  0  0  0  0
    8.3004    2.0948    0.0000 C   0  0  0  0  0  0  0  0  0  0  0  0
    8.2808    0.6546    0.0000 C   0  0  0  0  0  0  0  0  0  0  0  0
    5.4594   -0.6612    0.0000 C   0  0  0  0  0  0  0  0  0  0  0  0
    6.8996   -0.6808    0.0000 C   0  0  0  0  0  0  0  0  0  0  0  0
    7.7506    2.4024    0.0000 C   0  0  0  0  0  0  0  0  0  0  0  0
    6.9650    3.4760    0.0000 C   0  0  0  0  0  0  0  0  0  0  0  0
    8.6997    1.3747    0.0000 C   0  0  0  0  0  0  0  0  0  0  0  0
    6.1664   -1.0801    0.0000 C   0  0  0  0  0  0  0  0  0  0  0  0
  1  2  1  0  0  0  0
  2  3  2  0  0  0  0
  2  4  1  0  0  0  0
  3  5  1  0  0  0  0
  4  6  2  0  0  0  0
  5  7  2  0  0  0  0
  7  8  1  0  0  0  0
  8  9  1  0  0  0  0
  8 10  1  0  0  0  0
  8 11  1  0  0  0  0
 10 12  1  0  0  0  0
 11 13  1  0  0  0  0
 12 14  1  0  0  0  0
 14 15  1  0  0  0  0
 15 16  1  0  0  0  0
 16 17  1  0  0  0  0
 17 18  1  0  0  0  0
 17 19  1  0  0  0  0
 17 20  1  0  0  0  0
 18 21  2  0  0  0  0
 18 22  1  0  0  0  0
 19 23  2  0  0  0  0
 19 24  1  0  0  0  0
 20 25  2  0  0  0  0
 20 26  1  0  0  0  0
 21 27  1  0  0  0  0
 22 28  2  0  0  0  0
 23 29  1  0  0  0  0
 24 30  2  0  0  0  0
 26 31  1  0  0  0  0
 26 32  1  0  0  0  0
 27 33  2  0  0  0  0
 29 34  2  0  0  0  0
  6  7  1  0  0  0  0
 13 14  1  0  0  0  0
 28 33  1  0  0  0  0
 30 34  1  0  0  0  0
M  END

>  <name>
Loperamide

>  <ROTATABLE_BONDCOUNT>
7

>  <HBDScore>
0.8333333333333334

>  <dipole>
3.88

>  <logD>
2.77

>  <MPOScore>
3.022261904761905

>  <logDScore>
0.615

>  <MW>
477.05

>  <charge_dist(7.4)>
0.99

>  <CNS>
FALSE

>  <ArRings>
3

>  <HBD>
1

>  <BALABAN_INDEX>
1.36

>  <bpKa>
9.41

>  <TPSAScore>
1.0

>  <MWScore>
0.16392857142857142

>  <bpKaScore>
0.29499999999999993

>  <logPScore>
0.11500000000000021

>  <MPO_area>
28.49

>  <TPSA>
43.78

>  <logP>
4.77

$$$$

  Mrv1722703221715202D          

 46 49  0  0  0  0            999 V2000
    0.0000    0.0000    0.0000 O   0  0  0  0  0  0  0  0  0  0  0  0
    0.5497   -0.6072    0.0000 C   0  0  0  0  0  0  0  0  0  0  0  0
    1.3551   -0.4282    0.0000 N   0  0  0  0  0  0  0  0  0  0  0  0
    0.2877   -1.3934    0.0000 N   0  0  0  0  0  0  0  0  0  0  0  0
    1.6043    0.3707    0.0000 C   0  0  2  0  0  0  0  0  0  0  0  0
    1.9047   -1.0355    0.0000 C   0  0  0  0  0  0  0  0  0  0  0  0
    0.8373   -2.0006    0.0000 C   0  0  0  0  0  0  0  0  0  0  0  0
    2.4097    0.5497    0.0000 C   0  0  0  0  0  0  0  0  0  0  0  0
    1.0419    0.9907    0.0000 C   0  0  0  0  0  0  0  0  0  0  0  0
    1.6427   -1.8216    0.0000 C   0  0  0  0  0  0  0  0  0  0  0  0
    2.6589    1.3487    0.0000 O   0  0  0  0  0  0  0  0  0  0  0  0
    2.9594   -0.0575    0.0000 N   0  0  0  0  0  0  0  0  0  0  0  0
    0.2237    0.8246    0.0000 C   0  0  0  0  0  0  0  0  0  0  0  0
    1.2911    1.7897    0.0000 C   0  0  0  0  0  0  0  0  0  0  0  0
    3.7647    0.1214    0.0000 C   0  0  1  0  0  0  0  0  0  0  0  0
    4.0140    0.9204    0.0000 C   0  0  0  0  0  0  0  0  0  0  0  0
    4.3144   -0.4858    0.0000 C   0  0  0  0  0  0  0  0  0  0  0  0
    4.8193    1.0993    0.0000 C   0  0  0  0  0  0  0  0  0  0  0  0
    4.0523   -1.2719    0.0000 C   0  0  2  0  0  0  0  0  0  0  0  0
    5.0686    1.8983    0.0000 C   0  0  0  0  0  0  0  0  0  0  0  0
    5.3690    0.4922    0.0000 C   0  0  0  0  0  0  0  0  0  0  0  0
    3.2342   -1.4381    0.0000 O   0  0  0  0  0  0  0  0  0  0  0  0
    4.6020   -1.8792    0.0000 C   0  0  1  0  0  0  0  0  0  0  0  0
    5.8739    2.0773    0.0000 C   0  0  0  0  0  0  0  0  0  0  0  0
    6.1744    0.6711    0.0000 C   0  0  0  0  0  0  0  0  0  0  0  0
    5.4074   -1.7002    0.0000 N   0  0  0  0  0  0  0  0  0  0  0  0
    4.3400   -2.6653    0.0000 C   0  0  0  0  0  0  0  0  0  0  0  0
    6.4236    1.4701    0.0000 C   0  0  0  0  0  0  0  0  0  0  0  0
    5.6566   -0.9012    0.0000 C   0  0  0  0  0  0  0  0  0  0  0  0
    4.8896   -3.2726    0.0000 C   0  0  0  0  0  0  0  0  0  0  0  0
    5.0942   -0.2813    0.0000 O   0  0  0  0  0  0  0  0  0  0  0  0
    6.4620   -0.7223    0.0000 C   0  0  0  0  0  0  0  0  0  0  0  0
    4.6276   -4.0587    0.0000 C   0  0  0  0  0  0  0  0  0  0  0  0
    5.6950   -3.0936    0.0000 C   0  0  0  0  0  0  0  0  0  0  0  0
    6.7112    0.0767    0.0000 O   0  0  0  0  0  0  0  0  0  0  0  0
    5.1773   -4.6659    0.0000 C   0  0  0  0  0  0  0  0  0  0  0  0
    6.2447   -3.7008    0.0000 C   0  0  0  0  0  0  0  0  0  0  0  0
    7.5166    0.2557    0.0000 C   0  0  0  0  0  0  0  0  0  0  0  0
    5.9826   -4.4869    0.0000 C   0  0  0  0  0  0  0  0  0  0  0  0
    7.7659    1.0546    0.0000 C   0  0  0  0  0  0  0  0  0  0  0  0
    8.0663   -0.3515    0.0000 C   0  0  0  0  0  0  0  0  0  0  0  0
    8.5712    1.2336    0.0000 C   0  0  0  0  0  0  0  0  0  0  0  0
    7.2034    1.6746    0.0000 C   0  0  0  0  0  0  0  0  0  0  0  0
    8.8716   -0.1726    0.0000 C   0  0  0  0  0  0  0  0  0  0  0  0
    7.8042   -1.1377    0.0000 C   0  0  0  0  0  0  0  0  0  0  0  0
    9.1209    0.6264    0.0000 C   0  0  0  0  0  0  0  0  0  0  0  0
  1  2  2  0  0  0  0
  2  3  1  0  0  0  0
  2  4  1  0  0  0  0
  5  3  1  1  0  0  0
  3  6  1  0  0  0  0
  4  7  1  0  0  0  0
  5  8  1  0  0  0  0
  5  9  1  0  0  0  0
  6 10  1  0  0  0  0
  8 11  2  0  0  0  0
  8 12  1  0  0  0  0
  9 13  1  0  0  0  0
  9 14  1  0  0  0  0
 15 12  1  1  0  0  0
 15 16  1  0  0  0  0
 15 17  1  0  0  0  0
 16 18  1  0  0  0  0
 17 19  1  0  0  0  0
 18 20  2  0  0  0  0
 18 21  1  0  0  0  0
 19 22  1  1  0  0  0
 19 23  1  0  0  0  0
 20 24  1  0  0  0  0
 21 25  2  0  0  0  0
 23 26  1  1  0  0  0
 23 27  1  0  0  0  0
 24 28  2  0  0  0  0
 26 29  1  0  0  0  0
 27 30  1  0  0  0  0
 29 31  2  0  0  0  0
 29 32  1  0  0  0  0
 30 33  2  0  0  0  0
 30 34  1  0  0  0  0
 32 35  1  0  0  0  0
 33 36  1  0  0  0  0
 34 37  2  0  0  0  0
 35 38  1  0  0  0  0
 36 39  2  0  0  0  0
 38 40  2  0  0  0  0
 38 41  1  0  0  0  0
 40 42  1  0  0  0  0
 40 43  1  0  0  0  0
 41 44  2  0  0  0  0
 41 45  1  0  0  0  0
 42 46  2  0  0  0  0
  7 10  1  0  0  0  0
 25 28  1  0  0  0  0
 37 39  1  0  0  0  0
 44 46  1  0  0  0  0
M  END

>  <name>
Lopinavir

>  <ROTATABLE_BONDCOUNT>
15

>  <HBDScore>
0.0

>  <dipole>
9.27

>  <logD>
4.69

>  <MPOScore>
1.1549999999999998

>  <logDScore>
0.0

>  <MW>
628.814

>  <charge_dist(7.4)>
-0.00

>  <CNS>
FALSE

>  <ArRings>
3

>  <HBD>
4

>  <BALABAN_INDEX>
1.32

>  <bpKa>
-1.53

>  <TPSAScore>
0.0

>  <MWScore>
0.0

>  <bpKaScore>
1.0

>  <logPScore>
0.1549999999999998

>  <MPO_area>
2.58

>  <TPSA>
120.00

>  <logP>
4.69

$$$$

  Mrv1722703221715202D          

 24 26  0  0  0  0            999 V2000
    0.0000    0.0000    0.0000 Cl  0  0  0  0  0  0  0  0  0  0  0  0
    0.6762    0.4747    0.0000 C   0  0  0  0  0  0  0  0  0  0  0  0
    0.6047    1.3070    0.0000 C   0  0  0  0  0  0  0  0  0  0  0  0
    1.4175    0.1236    0.0000 C   0  0  0  0  0  0  0  0  0  0  0  0
    1.2810    1.7816    0.0000 N   0  0  0  0  0  0  0  0  0  0  0  0
   -0.1496    1.6711    0.0000 C   0  0  0  0  0  0  0  0  0  0  0  0
    2.0937    0.5982    0.0000 C   0  0  0  0  0  0  0  0  0  0  0  0
    1.6321    2.5359    0.0000 C   0  0  0  0  0  0  0  0  0  0  0  0
    2.0222    1.4305    0.0000 C   0  0  2  0  0  0  0  0  0  0  0  0
   -0.8388    1.2094    0.0000 O   0  0  0  0  0  0  0  0  0  0  0  0
   -0.2211    2.5034    0.0000 O   0  0  0  0  0  0  0  0  0  0  0  0
    1.3460    3.3227    0.0000 O   0  0  0  0  0  0  0  0  0  0  0  0
    2.3733    2.1848    0.0000 C   0  0  2  0  0  0  0  0  0  0  0  0
    3.1471    2.4709    0.0000 N   0  0  0  0  0  0  0  0  0  0  0  0
    3.7713    1.9377    0.0000 C   0  0  0  0  0  0  0  0  0  0  0  0
    3.6153    1.1314    0.0000 O   0  0  0  0  0  0  0  0  0  0  0  0
    4.5451    2.2238    0.0000 C   0  0  2  0  0  0  0  0  0  0  0  0
    4.6882    3.0431    0.0000 N   0  0  0  0  0  0  0  0  0  0  0  0
    5.1693    1.6906    0.0000 C   0  0  0  0  0  0  0  0  0  0  0  0
    5.0133    0.8843    0.0000 C   0  0  0  0  0  0  0  0  0  0  0  0
    5.9431    1.9767    0.0000 C   0  0  0  0  0  0  0  0  0  0  0  0
    5.6375    0.3511    0.0000 C   0  0  0  0  0  0  0  0  0  0  0  0
    6.5673    1.4435    0.0000 C   0  0  0  0  0  0  0  0  0  0  0  0
    6.4113    0.6372    0.0000 C   0  0  0  0  0  0  0  0  0  0  0  0
  1  2  1  0  0  0  0
  2  3  2  0  0  0  0
  2  4  1  0  0  0  0
  3  5  1  0  0  0  0
  3  6  1  0  0  0  0
  4  7  1  0  0  0  0
  5  8  1  0  0  0  0
  9  5  1  1  0  0  0
  6 10  2  0  0  0  0
  6 11  1  0  0  0  0
  8 12  2  0  0  0  0
  8 13  1  0  0  0  0
 13 14  1  1  0  0  0
 14 15  1  0  0  0  0
 15 16  2  0  0  0  0
 15 17  1  0  0  0  0
 17 18  1  6  0  0  0
 17 19  1  0  0  0  0
 19 20  2  0  0  0  0
 19 21  1  0  0  0  0
 20 22  1  0  0  0  0
 21 23  2  0  0  0  0
 22 24  2  0  0  0  0
  7  9  1  0  0  0  0
  9 13  1  0  0  0  0
 23 24  1  0  0  0  0
M  END

>  <name>
Loracarbef

>  <ROTATABLE_BONDCOUNT>
4

>  <HBDScore>
0.16666666666666674

>  <dipole>
7.29

>  <logD>
-2.75

>  <MPOScore>
4.409

>  <logDScore>
1.0

>  <MW>
349.77

>  <charge_dist(7.4)>
-0.60

>  <CNS>
FALSE

>  <ArRings>
1

>  <HBD>
3

>  <BALABAN_INDEX>
1.46

>  <bpKa>
7.23

>  <TPSAScore>
0.24233333333333318

>  <MWScore>
1.0

>  <bpKaScore>
1.0

>  <logPScore>
1.0

>  <MPO_area>
57.49

>  <TPSA>
112.73

>  <logP>
-2.40

$$$$

  Mrv1722703221715202D          

 27 28  0  0  0  0            999 V2000
    0.0000    0.0000    0.0000 F   0  0  0  0  0  0  0  0  0  0  0  0
    0.5160   -0.6257    0.0000 C   0  0  0  0  0  0  0  0  0  0  0  0
    1.0321   -1.2514    0.0000 F   0  0  0  0  0  0  0  0  0  0  0  0
   -0.1226   -1.1417    0.0000 C   0  0  2  0  0  0  0  0  0  0  0  0
    1.1417   -0.0968    0.0000 C   0  0  0  0  0  0  0  0  0  0  0  0
   -0.5483   -1.8383    0.0000 O   0  0  0  0  0  0  0  0  0  0  0  0
    0.4902   -1.6706    0.0000 O   0  0  0  0  0  0  0  0  0  0  0  0
   -0.5289   -0.4193    0.0000 C   0  0  0  0  0  0  0  0  0  0  0  0
    0.9998    0.7160    0.0000 C   0  0  0  0  0  0  0  0  0  0  0  0
   -1.3739   -1.8255    0.0000 C   0  0  2  0  0  0  0  0  0  0  0  0
   -1.3546   -0.4064    0.0000 C   0  0  0  0  0  0  0  0  0  0  0  0
    1.6255    1.2449    0.0000 C   0  0  0  0  0  0  0  0  0  0  0  0
   -1.7803   -1.1030    0.0000 C   0  0  1  0  0  0  0  0  0  0  0  0
   -1.9351   -2.4253    0.0000 C   0  0  0  0  0  0  0  0  0  0  0  0
    1.4836    2.0576    0.0000 C   0  0  0  0  0  0  0  0  0  0  0  0
   -2.5866   -1.2578    0.0000 C   0  0  1  0  0  0  0  0  0  0  0  0
   -2.6898   -2.0770    0.0000 C   0  0  0  0  0  0  0  0  0  0  0  0
   -3.1994   -0.6966    0.0000 C   0  0  0  0  0  0  0  0  0  0  0  0
   -3.4122   -2.4705    0.0000 O   0  0  0  0  0  0  0  0  0  0  0  0
   -3.9863   -0.9353    0.0000 C   0  0  0  0  0  0  0  0  0  0  0  0
   -4.5991   -0.3741    0.0000 C   0  0  0  0  0  0  0  0  0  0  0  0
   -5.3860   -0.6128    0.0000 C   0  0  0  0  0  0  0  0  0  0  0  0
   -5.9988   -0.0516    0.0000 C   0  0  0  0  0  0  0  0  0  0  0  0
   -6.7858   -0.2903    0.0000 C   0  0  0  0  0  0  0  0  0  0  0  0
   -7.3985    0.2709    0.0000 C   0  0  0  0  0  0  0  0  0  0  0  0
   -7.2243    1.0772    0.0000 O   0  0  0  0  0  0  0  0  0  0  0  0
   -8.1855    0.0323    0.0000 O   0  0  0  0  0  0  0  0  0  0  0  0
  1  2  1  0  0  0  0
  2  3  1  0  0  0  0
  2  4  1  0  0  0  0
  2  5  1  0  0  0  0
  4  6  1  0  0  0  0
  4  7  1  6  0  0  0
  4  8  1  0  0  0  0
  5  9  1  0  0  0  0
 10  6  1  1  0  0  0
  8 11  1  0  0  0  0
  9 12  1  0  0  0  0
 10 13  1  0  0  0  0
 10 14  1  0  0  0  0
 12 15  1  0  0  0  0
 13 16  1  0  0  0  0
 14 17  1  0  0  0  0
 16 18  1  1  0  0  0
 17 19  2  0  0  0  0
 18 20  1  0  0  0  0
 20 21  1  0  0  0  0
 21 22  1  0  0  0  0
 22 23  1  0  0  0  0
 23 24  1  0  0  0  0
 24 25  1  0  0  0  0
 25 26  2  0  0  0  0
 25 27  1  0  0  0  0
 13 11  1  6  0  0  0
 16 17  1  0  0  0  0
M  END

>  <name>
Lubiprostone

>  <ROTATABLE_BONDCOUNT>
11

>  <HBDScore>
0.5

>  <dipole>
3.67

>  <logD>
1.60

>  <MPOScore>
4.502371428571429

>  <logDScore>
1.0

>  <MW>
390.468

>  <charge_dist(7.4)>
-1.00

>  <CNS>
FALSE

>  <ArRings>
0

>  <HBD>
2

>  <BALABAN_INDEX>
1.76

>  <bpKa>
-4.4

>  <TPSAScore>
1.0

>  <MWScore>
0.7823714285714285

>  <bpKaScore>
1.0

>  <logPScore>
0.2200000000000002

>  <MPO_area>
58.39

>  <TPSA>
83.83

>  <logP>
4.56

$$$$

  Mrv1722703221715202D          

 32 34  0  0  0  0            999 V2000
    0.0000    0.0000    0.0000 Br  0  0  0  0  0  0  0  0  0  0  0  0
    0.7801    0.2685    0.0000 C   0  0  0  0  0  0  0  0  0  0  0  0
    0.9335    1.0870    0.0000 C   0  0  0  0  0  0  0  0  0  0  0  0
    1.3939   -0.2749    0.0000 C   0  0  0  0  0  0  0  0  0  0  0  0
    1.7136    1.3555    0.0000 N   0  0  0  0  0  0  0  0  0  0  0  0
    2.1739   -0.0064    0.0000 N   0  0  0  0  0  0  0  0  0  0  0  0
    2.3274    0.8120    0.0000 C   0  0  0  0  0  0  0  0  0  0  0  0
    3.1074    1.0806    0.0000 O   0  0  0  0  0  0  0  0  0  0  0  0
    3.7212    0.5371    0.0000 C   0  0  0  0  0  0  0  0  0  0  0  0
    4.5013    0.8056    0.0000 C   0  0  0  0  0  0  0  0  0  0  0  0
    5.1152    0.2622    0.0000 O   0  0  0  0  0  0  0  0  0  0  0  0
    5.8952    0.5307    0.0000 C   0  0  0  0  0  0  0  0  0  0  0  0
    6.0486    1.3491    0.0000 N   0  0  0  0  0  0  0  0  0  0  0  0
    6.5090   -0.0128    0.0000 C   0  0  0  0  0  0  0  0  0  0  0  0
    6.8287    1.6176    0.0000 C   0  0  0  0  0  0  0  0  0  0  0  0
    7.2891    0.2558    0.0000 C   0  0  0  0  0  0  0  0  0  0  0  0
    6.3428   -0.8184    0.0000 C   0  0  0  0  0  0  0  0  0  0  0  0
    7.4425    1.0742    0.0000 N   0  0  0  0  0  0  0  0  0  0  0  0
    7.9029   -0.2877    0.0000 N   0  0  0  0  0  0  0  0  0  0  0  0
    5.5499   -1.0742    0.0000 C   0  0  0  0  0  0  0  0  0  0  0  0
    6.9566   -1.3619    0.0000 C   0  0  0  0  0  0  0  0  0  0  0  0
    8.6829   -0.0192    0.0000 S   0  0  0  0  0  0  0  0  0  0  0  0
    5.3837   -1.8798    0.0000 C   0  0  0  0  0  0  0  0  0  0  0  0
    6.7903   -2.1675    0.0000 C   0  0  0  0  0  0  0  0  0  0  0  0
    8.4144    0.7737    0.0000 O   0  0  0  0  0  0  0  0  0  0  0  0
    8.9387   -0.7992    0.0000 O   0  0  0  0  0  0  0  0  0  0  0  0
    9.4630    0.2494    0.0000 N   0  0  0  0  0  0  0  0  0  0  0  0
    5.9975   -2.4233    0.0000 C   0  0  0  0  0  0  0  0  0  0  0  0
    9.6164    1.0678    0.0000 C   0  0  0  0  0  0  0  0  0  0  0  0
    5.8312   -3.2289    0.0000 Br  0  0  0  0  0  0  0  0  0  0  0  0
   10.3965    1.3363    0.0000 C   0  0  0  0  0  0  0  0  0  0  0  0
   10.5500    2.1548    0.0000 C   0  0  0  0  0  0  0  0  0  0  0  0
  1  2  1  0  0  0  0
  2  3  2  0  0  0  0
  2  4  1  0  0  0  0
  3  5  1  0  0  0  0
  4  6  2  0  0  0  0
  5  7  2  0  0  0  0
  7  8  1  0  0  0  0
  8  9  1  0  0  0  0
  9 10  1  0  0  0  0
 10 11  1  0  0  0  0
 11 12  1  0  0  0  0
 12 13  2  0  0  0  0
 12 14  1  0  0  0  0
 13 15  1  0  0  0  0
 14 16  2  0  0  0  0
 14 17  1  0  0  0  0
 15 18  2  0  0  0  0
 16 19  1  0  0  0  0
 17 20  2  0  0  0  0
 17 21  1  0  0  0  0
 19 22  1  0  0  0  0
 20 23  1  0  0  0  0
 21 24  2  0  0  0  0
 22 25  2  0  0  0  0
 22 26  2  0  0  0  0
 22 27  1  0  0  0  0
 23 28  2  0  0  0  0
 27 29  1  0  0  0  0
 28 30  1  0  0  0  0
 29 31  1  0  0  0  0
 31 32  1  0  0  0  0
  6  7  1  0  0  0  0
 16 18  1  0  0  0  0
 24 28  1  0  0  0  0
M  END

>  <name>
Macitentan

>  <ROTATABLE_BONDCOUNT>
9

>  <HBDScore>
0.5

>  <dipole>
5.35

>  <logD>
3.55

>  <MPOScore>
2.38

>  <logDScore>
0.2250000000000001

>  <MW>
588.28

>  <charge_dist(7.4)>
-0.30

>  <CNS>
FALSE

>  <ArRings>
3

>  <HBD>
2

>  <BALABAN_INDEX>
1.46

>  <bpKa>
2.26

>  <TPSAScore>
0.0

>  <MWScore>
0.0

>  <bpKaScore>
1.0

>  <logPScore>
0.655

>  <MPO_area>
18.25

>  <TPSA>
128.22

>  <logP>
3.69

$$$$

  Mrv1722703221715202D          

 28 31  0  0  0  0            999 V2000
    0.0000    0.0000    0.0000 O   0  0  0  0  0  0  0  0  0  0  0  0
   -0.8248    0.0193    0.0000 C   0  0  0  0  0  0  0  0  0  0  0  0
   -1.2500   -0.6766    0.0000 C   0  0  0  0  0  0  0  0  0  0  0  0
   -1.2307    0.7410    0.0000 C   0  0  0  0  0  0  0  0  0  0  0  0
   -2.0748   -0.6572    0.0000 C   0  0  0  0  0  0  0  0  0  0  0  0
   -2.0555    0.7603    0.0000 C   0  0  0  0  0  0  0  0  0  0  0  0
   -2.4807    0.0644    0.0000 C   0  0  1  0  0  0  0  0  0  0  0  0
   -2.5001   -1.3531    0.0000 C   0  0  1  0  0  0  0  0  0  0  0  0
   -3.3055    0.0838    0.0000 C   0  0  1  0  0  0  0  0  0  0  0  0
   -2.8867    0.7861    0.0000 C   0  0  0  0  0  0  0  0  0  0  0  0
   -3.3248   -1.3338    0.0000 C   0  0  0  0  0  0  0  0  0  0  0  0
   -2.1070   -2.0619    0.0000 C   0  0  0  0  0  0  0  0  0  0  0  0
   -3.7308   -0.6121    0.0000 C   0  0  2  0  0  0  0  0  0  0  0  0
   -3.7115    0.8054    0.0000 C   0  0  0  0  0  0  0  0  0  0  0  0
   -4.5555   -0.5928    0.0000 C   0  0  2  0  0  0  0  0  0  0  0  0
   -4.5363    0.8248    0.0000 C   0  0  0  0  0  0  0  0  0  0  0  0
   -4.9615    0.1289    0.0000 C   0  0  1  0  0  0  0  0  0  0  0  0
   -5.1162   -1.1856    0.0000 C   0  0  0  0  0  0  0  0  0  0  0  0
   -5.7734   -0.0258    0.0000 C   0  0  2  0  0  0  0  0  0  0  0  0
   -5.4384    0.8054    0.0000 C   0  0  0  0  0  0  0  0  0  0  0  0
   -5.8636   -0.8377    0.0000 C   0  0  0  0  0  0  0  0  0  0  0  0
   -6.5982   -0.0065    0.0000 O   0  0  0  0  0  0  0  0  0  0  0  0
   -5.8571    0.7925    0.0000 C   0  0  0  0  0  0  0  0  0  0  0  0
   -7.0235   -0.7023    0.0000 C   0  0  0  0  0  0  0  0  0  0  0  0
   -5.1935    1.2694    0.0000 O   0  0  0  0  0  0  0  0  0  0  0  0
   -6.6046    1.1405    0.0000 C   0  0  0  0  0  0  0  0  0  0  0  0
   -6.6304   -1.4112    0.0000 O   0  0  0  0  0  0  0  0  0  0  0  0
   -7.8482   -0.6830    0.0000 C   0  0  0  0  0  0  0  0  0  0  0  0
  1  2  2  0  0  0  0
  2  3  1  0  0  0  0
  2  4  1  0  0  0  0
  3  5  2  0  0  0  0
  4  6  1  0  0  0  0
  5  7  1  0  0  0  0
  5  8  1  0  0  0  0
  7  9  1  0  0  0  0
  7 10  1  1  0  0  0
  8 11  1  0  0  0  0
  8 12  1  6  0  0  0
  9 13  1  0  0  0  0
  9 14  1  1  0  0  0
 13 15  1  0  0  0  0
 14 16  1  0  0  0  0
 15 17  1  0  0  0  0
 15 18  1  1  0  0  0
 17 19  1  0  0  0  0
 17 20  1  1  0  0  0
 18 21  1  0  0  0  0
 19 22  1  6  0  0  0
 19 23  1  0  0  0  0
 22 24  1  0  0  0  0
 23 25  2  0  0  0  0
 23 26  1  0  0  0  0
 24 27  2  0  0  0  0
 24 28  1  0  0  0  0
  6  7  1  0  0  0  0
 13 11  1  6  0  0  0
 16 17  1  0  0  0  0
 19 21  1  0  0  0  0
M  END

>  <name>
Medroxyprogesterone_acetate

>  <ROTATABLE_BONDCOUNT>
3

>  <HBDScore>
1.0

>  <dipole>
4.28

>  <logD>
4.13

>  <MPOScore>
4.2454857142857145

>  <logDScore>
0.0

>  <MW>
386.532

>  <charge_dist(7.4)>
-0.00

>  <CNS>
FALSE

>  <ArRings>
0

>  <HBD>
0

>  <BALABAN_INDEX>
1.62

>  <bpKa>
-4.9

>  <TPSAScore>
1.0

>  <MWScore>
0.8104857142857145

>  <bpKaScore>
1.0

>  <logPScore>
0.43500000000000005

>  <MPO_area>
52.72

>  <TPSA>
60.44

>  <logP>
4.13

$$$$

  Mrv1722703221715202D          

 18 19  0  0  0  0            999 V2000
    0.0000    0.0000    0.0000 O   0  0  0  0  0  0  0  0  0  0  0  0
   -0.7554    0.3329    0.0000 C   0  0  0  0  0  0  0  0  0  0  0  0
   -1.4211   -0.1472    0.0000 O   0  0  0  0  0  0  0  0  0  0  0  0
   -0.8514    1.1523    0.0000 C   0  0  0  0  0  0  0  0  0  0  0  0
   -1.6068    1.4851    0.0000 C   0  0  0  0  0  0  0  0  0  0  0  0
   -0.1985    1.6451    0.0000 C   0  0  0  0  0  0  0  0  0  0  0  0
   -2.2725    1.0050    0.0000 N   0  0  0  0  0  0  0  0  0  0  0  0
   -1.7028    2.3045    0.0000 C   0  0  0  0  0  0  0  0  0  0  0  0
   -0.2945    2.4645    0.0000 C   0  0  0  0  0  0  0  0  0  0  0  0
   -3.0279    1.3379    0.0000 C   0  0  0  0  0  0  0  0  0  0  0  0
   -1.0498    2.7975    0.0000 C   0  0  0  0  0  0  0  0  0  0  0  0
   -3.6936    0.8578    0.0000 C   0  0  0  0  0  0  0  0  0  0  0  0
   -3.1239    2.1573    0.0000 C   0  0  0  0  0  0  0  0  0  0  0  0
   -4.4490    1.1906    0.0000 C   0  0  0  0  0  0  0  0  0  0  0  0
   -3.6104    0.0512    0.0000 C   0  0  0  0  0  0  0  0  0  0  0  0
   -3.8793    2.4901    0.0000 C   0  0  0  0  0  0  0  0  0  0  0  0
   -4.5450    2.0100    0.0000 C   0  0  0  0  0  0  0  0  0  0  0  0
   -5.1148    0.7105    0.0000 C   0  0  0  0  0  0  0  0  0  0  0  0
  1  2  2  0  0  0  0
  2  3  1  0  0  0  0
  2  4  1  0  0  0  0
  4  5  2  0  0  0  0
  4  6  1  0  0  0  0
  5  7  1  0  0  0  0
  5  8  1  0  0  0  0
  6  9  2  0  0  0  0
  7 10  1  0  0  0  0
  8 11  2  0  0  0  0
 10 12  2  0  0  0  0
 10 13  1  0  0  0  0
 12 14  1  0  0  0  0
 12 15  1  0  0  0  0
 13 16  2  0  0  0  0
 14 17  2  0  0  0  0
 14 18  1  0  0  0  0
  9 11  1  0  0  0  0
 16 17  1  0  0  0  0
M  END

>  <name>
Mefenamic_acid

>  <ROTATABLE_BONDCOUNT>
3

>  <HBDScore>
0.5

>  <dipole>
4.85

>  <logD>
2.18

>  <MPOScore>
4.41

>  <logDScore>
0.9099999999999999

>  <MW>
241.290

>  <charge_dist(7.4)>
-1.00

>  <CNS>
FALSE

>  <ArRings>
2

>  <HBD>
2

>  <BALABAN_INDEX>
1.83

>  <bpKa>
-1.58

>  <TPSAScore>
1.0

>  <MWScore>
1.0

>  <bpKaScore>
1.0

>  <logPScore>
0.0

>  <MPO_area>
56.08

>  <TPSA>
49.33

>  <logP>
5.40

$$$$

  Mrv1722703221715202D          

 23 25  0  0  0  0            999 V2000
    0.0000    0.0000    0.0000 S   0  0  0  0  0  0  0  0  0  0  0  0
   -0.3510    0.7605    0.0000 O   0  0  0  0  0  0  0  0  0  0  0  0
    0.6760    0.4745    0.0000 O   0  0  0  0  0  0  0  0  0  0  0  0
   -0.8060   -0.2015    0.0000 N   0  0  0  0  0  0  0  0  0  0  0  0
    0.5720   -0.5850    0.0000 C   0  0  0  0  0  0  0  0  0  0  0  0
   -1.0335   -0.9945    0.0000 C   0  0  0  0  0  0  0  0  0  0  0  0
   -1.3911    0.3965    0.0000 C   0  0  0  0  0  0  0  0  0  0  0  0
    0.3445   -1.3780    0.0000 C   0  0  0  0  0  0  0  0  0  0  0  0
    1.3650   -0.3705    0.0000 C   0  0  0  0  0  0  0  0  0  0  0  0
   -0.4615   -1.5795    0.0000 C   0  0  0  0  0  0  0  0  0  0  0  0
   -1.8396   -1.1960    0.0000 C   0  0  0  0  0  0  0  0  0  0  0  0
    0.9165   -1.9631    0.0000 C   0  0  0  0  0  0  0  0  0  0  0  0
    1.9370   -0.9555    0.0000 C   0  0  0  0  0  0  0  0  0  0  0  0
   -0.6890   -2.3725    0.0000 O   0  0  0  0  0  0  0  0  0  0  0  0
   -2.0671   -1.9890    0.0000 O   0  0  0  0  0  0  0  0  0  0  0  0
   -2.4245   -0.5980    0.0000 N   0  0  0  0  0  0  0  0  0  0  0  0
    1.7095   -1.7485    0.0000 C   0  0  0  0  0  0  0  0  0  0  0  0
   -3.2305   -0.7995    0.0000 C   0  0  0  0  0  0  0  0  0  0  0  0
   -3.8741   -0.2665    0.0000 S   0  0  0  0  0  0  0  0  0  0  0  0
   -3.5426   -1.5601    0.0000 N   0  0  0  0  0  0  0  0  0  0  0  0
   -4.5761   -0.7020    0.0000 C   0  0  0  0  0  0  0  0  0  0  0  0
   -4.3746   -1.5015    0.0000 C   0  0  0  0  0  0  0  0  0  0  0  0
   -5.3496   -0.3900    0.0000 C   0  0  0  0  0  0  0  0  0  0  0  0
  1  2  2  0  0  0  0
  1  3  2  0  0  0  0
  1  4  1  0  0  0  0
  1  5  1  0  0  0  0
  4  6  1  0  0  0  0
  4  7  1  0  0  0  0
  5  8  2  0  0  0  0
  5  9  1  0  0  0  0
  6 10  2  0  0  0  0
  6 11  1  0  0  0  0
  8 12  1  0  0  0  0
  9 13  2  0  0  0  0
 10 14  1  0  0  0  0
 11 15  2  0  0  0  0
 11 16  1  0  0  0  0
 12 17  2  0  0  0  0
 16 18  1  0  0  0  0
 18 19  1  0  0  0  0
 18 20  2  0  0  0  0
 19 21  1  0  0  0  0
 20 22  1  0  0  0  0
 21 23  1  0  0  0  0
  8 10  1  0  0  0  0
 13 17  1  0  0  0  0
 21 22  2  0  0  0  0
M  END

>  <name>
Meloxicam

>  <ROTATABLE_BONDCOUNT>
2

>  <HBDScore>
0.5

>  <dipole>
10.86

>  <logD>
-1.10

>  <MPOScore>
5.18

>  <logDScore>
1.0

>  <MW>
351.40

>  <charge_dist(7.4)>
-1.26

>  <CNS>
FALSE

>  <ArRings>
2

>  <HBD>
2

>  <BALABAN_INDEX>
1.67

>  <bpKa>
0.47

>  <TPSAScore>
0.6800000000000002

>  <MWScore>
1.0

>  <bpKaScore>
1.0

>  <logPScore>
1.0

>  <MPO_area>
75.33

>  <TPSA>
99.60

>  <logP>
1.60

$$$$

  Mrv1722703221715202D          

 19 19  0  0  0  0            999 V2000
    0.0000    0.0000    0.0000 Cl  0  0  0  0  0  0  0  0  0  0  0  0
    0.5050   -0.6475    0.0000 C   0  0  0  0  0  0  0  0  0  0  0  0
    1.3208   -0.5244    0.0000 C   0  0  0  0  0  0  0  0  0  0  0  0
    1.8258   -1.1719    0.0000 N   0  0  0  0  0  0  0  0  0  0  0  0
    2.6416   -1.0489    0.0000 C   0  0  0  0  0  0  0  0  0  0  0  0
    1.5086   -1.9359    0.0000 C   0  0  0  0  0  0  0  0  0  0  0  0
    3.1465   -1.6963    0.0000 C   0  0  0  0  0  0  0  0  0  0  0  0
    2.9458   -0.2719    0.0000 C   0  0  0  0  0  0  0  0  0  0  0  0
    0.6798   -2.0459    0.0000 C   0  0  0  0  0  0  0  0  0  0  0  0
    3.9623   -1.5733    0.0000 C   0  0  0  0  0  0  0  0  0  0  0  0
    3.7616   -0.1489    0.0000 C   0  0  0  0  0  0  0  0  0  0  0  0
    0.3626   -2.8099    0.0000 Cl  0  0  0  0  0  0  0  0  0  0  0  0
    4.2666   -0.7963    0.0000 C   0  0  0  0  0  0  0  0  0  0  0  0
    5.0824   -0.6733    0.0000 C   0  0  0  0  0  0  0  0  0  0  0  0
    5.5874   -1.3208    0.0000 C   0  0  2  0  0  0  0  0  0  0  0  0
    5.2702   -2.0847    0.0000 N   0  0  0  0  0  0  0  0  0  0  0  0
    6.4032   -1.1977    0.0000 C   0  0  0  0  0  0  0  0  0  0  0  0
    6.7075   -0.4209    0.0000 O   0  0  0  0  0  0  0  0  0  0  0  0
    6.9082   -1.8452    0.0000 O   0  0  0  0  0  0  0  0  0  0  0  0
  1  2  1  0  0  0  0
  2  3  1  0  0  0  0
  3  4  1  0  0  0  0
  4  5  1  0  0  0  0
  4  6  1  0  0  0  0
  5  7  2  0  0  0  0
  5  8  1  0  0  0  0
  6  9  1  0  0  0  0
  7 10  1  0  0  0  0
  8 11  2  0  0  0  0
  9 12  1  0  0  0  0
 10 13  2  0  0  0  0
 13 14  1  0  0  0  0
 14 15  1  0  0  0  0
 15 16  1  1  0  0  0
 15 17  1  0  0  0  0
 17 18  2  0  0  0  0
 17 19  1  0  0  0  0
 11 13  1  0  0  0  0
M  END

>  <name>
Melphalan

>  <ROTATABLE_BONDCOUNT>
8

>  <HBDScore>
0.5

>  <dipole>
6.03

>  <logD>
0.25

>  <MPOScore>
4.745

>  <logDScore>
1.0

>  <MW>
305.20

>  <charge_dist(7.4)>
-0.01

>  <CNS>
FALSE

>  <ArRings>
1

>  <HBD>
2

>  <BALABAN_INDEX>
2.22

>  <bpKa>
9.51

>  <TPSAScore>
1.0

>  <MWScore>
1.0

>  <bpKaScore>
0.2450000000000001

>  <logPScore>
1.0

>  <MPO_area>
64.46

>  <TPSA>
66.56

>  <logP>
0.25

$$$$

  Mrv1722703221715202D          

 25 27  0  0  0  0            999 V2000
    0.0000    0.0000    0.0000 O   0  0  0  0  0  0  0  0  0  0  0  0
    0.0970    0.8274    0.0000 C   0  0  0  0  0  0  0  0  0  0  0  0
    0.8532    1.1571    0.0000 O   0  0  0  0  0  0  0  0  0  0  0  0
   -0.5688    1.3316    0.0000 C   0  0  0  0  0  0  0  0  0  0  0  0
    1.5061    0.6658    0.0000 C   0  0  2  0  0  0  0  0  0  0  0  0
   -1.2346    1.8358    0.0000 O   0  0  0  0  0  0  0  0  0  0  0  0
   -1.0731    0.6787    0.0000 C   0  0  0  0  0  0  0  0  0  0  0  0
   -0.0776    1.9974    0.0000 C   0  0  0  0  0  0  0  0  0  0  0  0
    2.2624    0.9955    0.0000 C   0  0  0  0  0  0  0  0  0  0  0  0
    1.3962   -0.1487    0.0000 C   0  0  0  0  0  0  0  0  0  0  0  0
   -0.7563   -0.0776    0.0000 C   0  0  0  0  0  0  0  0  0  0  0  0
   -1.9005    0.7886    0.0000 C   0  0  0  0  0  0  0  0  0  0  0  0
    0.7369    1.9005    0.0000 C   0  0  0  0  0  0  0  0  0  0  0  0
   -0.4073    2.7666    0.0000 C   0  0  0  0  0  0  0  0  0  0  0  0
    2.9153    0.5042    0.0000 N   0  3  0  0  0  0  0  0  0  0  0  0
    2.0491   -0.6400    0.0000 C   0  0  0  0  0  0  0  0  0  0  0  0
   -1.2605   -0.7304    0.0000 C   0  0  0  0  0  0  0  0  0  0  0  0
   -2.4046    0.1357    0.0000 C   0  0  0  0  0  0  0  0  0  0  0  0
    1.2282    2.5663    0.0000 C   0  0  0  0  0  0  0  0  0  0  0  0
    0.0840    3.4324    0.0000 C   0  0  0  0  0  0  0  0  0  0  0  0
    2.8054   -0.3103    0.0000 C   0  0  0  0  0  0  0  0  0  0  0  0
    3.2838    1.2476    0.0000 C   0  0  0  0  0  0  0  0  0  0  0  0
    3.6975    0.2650    0.0000 C   0  0  0  0  0  0  0  0  0  0  0  0
   -2.0879   -0.6205    0.0000 C   0  0  0  0  0  0  0  0  0  0  0  0
    0.8985    3.3355    0.0000 C   0  0  0  0  0  0  0  0  0  0  0  0
  1  2  2  0  0  0  0
  2  3  1  0  0  0  0
  2  4  1  0  0  0  0
  5  3  1  6  0  0  0
  4  6  1  0  0  0  0
  4  7  1  0  0  0  0
  4  8  1  0  0  0  0
  5  9  1  0  0  0  0
  5 10  1  0  0  0  0
  7 11  2  0  0  0  0
  7 12  1  0  0  0  0
  8 13  2  0  0  0  0
  8 14  1  0  0  0  0
  9 15  1  0  0  0  0
 10 16  1  0  0  0  0
 11 17  1  0  0  0  0
 12 18  2  0  0  0  0
 13 19  1  0  0  0  0
 14 20  2  0  0  0  0
 15 21  1  0  0  0  0
 15 22  1  0  0  0  0
 15 23  1  0  0  0  0
 17 24  2  0  0  0  0
 19 25  2  0  0  0  0
 16 21  1  0  0  0  0
 18 24  1  0  0  0  0
 20 25  1  0  0  0  0
M  CHG  1  15   1
M  END

>  <name>
Mepenzolate

>  <ROTATABLE_BONDCOUNT>
5

>  <HBDScore>
0.8333333333333334

>  <dipole>
19.04

>  <logD>
-0.97

>  <MPOScore>
5.833333333333333

>  <logDScore>
1.0

>  <MW>
340.442

>  <charge_dist(7.4)>
-0.00

>  <CNS>
FALSE

>  <ArRings>
2

>  <HBD>
1

>  <BALABAN_INDEX>
1.53

>  <bpKa>
-4.53

>  <TPSAScore>
1.0

>  <MWScore>
1.0

>  <bpKaScore>
1.0

>  <logPScore>
1.0

>  <MPO_area>
94.44

>  <TPSA>
46.53

>  <logP>
-0.97

$$$$

  Mrv1722703221715202D          

 10 11  0  0  0  0            999 V2000
    0.0000    0.0000    0.0000 S   0  0  0  0  0  0  0  0  0  0  0  0
   -0.2324    0.7939    0.0000 C   0  0  0  0  0  0  0  0  0  0  0  0
    0.3292    1.3942    0.0000 N   0  0  0  0  0  0  0  0  0  0  0  0
   -1.0328    0.9940    0.0000 C   0  0  0  0  0  0  0  0  0  0  0  0
    0.0968    2.1882    0.0000 C   0  0  0  0  0  0  0  0  0  0  0  0
   -1.7170    0.5422    0.0000 N   0  0  0  0  0  2  0  0  0  0  0  0
   -1.2652    1.7880    0.0000 C   0  0  0  0  0  0  0  0  0  0  0  0
   -0.7035    2.3883    0.0000 N   0  0  0  0  0  0  0  0  0  0  0  0
   -2.3689    1.0522    0.0000 C   0  0  0  0  0  0  0  0  0  0  0  0
   -2.0913    1.8203    0.0000 N   0  0  0  0  0  0  0  0  0  0  0  0
  1  2  2  0  0  0  0
  2  3  1  0  0  0  0
  2  4  1  0  0  0  0
  3  5  2  0  0  0  0
  4  6  1  0  0  0  0
  4  7  2  0  0  0  0
  5  8  1  0  0  0  0
  6  9  1  0  0  0  0
  7 10  1  0  0  0  0
  7  8  1  0  0  0  0
  9 10  2  0  0  0  0
M  RAD  1   6   2
M  END

>  <name>
Mercaptopurine

>  <ROTATABLE_BONDCOUNT>
0

>  <HBDScore>
0.8333333333333334

>  <logD>
0.21

>  <MPOScore>
5.833333333333333

>  <logDScore>
1.0

>  <MW>
151.17

>  <charge_dist(7.4)>
-0.00

>  <CNS>
FALSE

>  <ArRings>
2

>  <HBD>
1

>  <BALABAN_INDEX>
1.66

>  <bpKa>
-0.92

>  <TPSAScore>
1.0

>  <MWScore>
1.0

>  <bpKaScore>
1.0

>  <logPScore>
1.0

>  <MPO_area>
94.44

>  <TPSA>
50.17

>  <logP>
0.21

$$$$

  Mrv1722703221715202D          

 11 11  0  0  0  0            999 V2000
    0.0000    0.0000    0.0000 O   0  0  0  0  0  0  0  0  0  0  0  0
   -0.6654   -0.4798    0.0000 C   0  0  0  0  0  0  0  0  0  0  0  0
   -0.5758   -1.2860    0.0000 O   0  0  0  0  0  0  0  0  0  0  0  0
   -1.4203   -0.1471    0.0000 C   0  0  0  0  0  0  0  0  0  0  0  0
   -1.5227    0.6718    0.0000 C   0  0  0  0  0  0  0  0  0  0  0  0
   -2.0857   -0.6270    0.0000 C   0  0  0  0  0  0  0  0  0  0  0  0
   -0.8701    1.1644    0.0000 O   0  0  0  0  0  0  0  0  0  0  0  0
   -2.2777    1.0044    0.0000 C   0  0  0  0  0  0  0  0  0  0  0  0
   -2.8407   -0.2943    0.0000 C   0  0  0  0  0  0  0  0  0  0  0  0
   -2.9430    0.5246    0.0000 C   0  0  0  0  0  0  0  0  0  0  0  0
   -3.5060   -0.7741    0.0000 N   0  0  0  0  0  0  0  0  0  0  0  0
  1  2  2  0  0  0  0
  2  3  1  0  0  0  0
  2  4  1  0  0  0  0
  4  5  2  0  0  0  0
  4  6  1  0  0  0  0
  5  7  1  0  0  0  0
  5  8  1  0  0  0  0
  6  9  2  0  0  0  0
  8 10  2  0  0  0  0
  9 11  1  0  0  0  0
  9 10  1  0  0  0  0
M  END

>  <name>
Mesalamine

>  <ROTATABLE_BONDCOUNT>
1

>  <HBDScore>
0.16666666666666674

>  <dipole>
9.27

>  <logD>
-1.72

>  <MPOScore>
5.166666666666667

>  <logDScore>
1.0

>  <MW>
153.137

>  <charge_dist(7.4)>
-0.97

>  <CNS>
FALSE

>  <ArRings>
1

>  <HBD>
3

>  <BALABAN_INDEX>
2.25

>  <bpKa>
5.87

>  <TPSAScore>
1.0

>  <MWScore>
1.0

>  <bpKaScore>
1.0

>  <logPScore>
1.0

>  <MPO_area>
72.22

>  <TPSA>
83.55

>  <logP>
-0.29

$$$$

  Mrv1722703221715202D          

  7  6  0  0  0  0            999 V2000
    0.0000    0.0000    0.0000 S   0  0  0  0  0  0  0  0  0  0  0  0
    0.3019    0.7728    0.0000 O   0  0  0  0  0  0  0  0  0  0  0  0
   -0.3139   -0.7607    0.0000 O   0  0  0  0  0  0  0  0  0  0  0  0
   -0.7728    0.3139    0.0000 O   0  5  0  0  0  0  0  0  0  0  0  0
    0.7607   -0.3019    0.0000 C   0  0  0  0  0  0  0  0  0  0  0  0
    1.4067    0.2113    0.0000 C   0  0  0  0  0  0  0  0  0  0  0  0
    2.1674   -0.0906    0.0000 S   0  0  0  0  0  0  0  0  0  0  0  0
  1  2  2  0  0  0  0
  1  3  2  0  0  0  0
  1  4  1  0  0  0  0
  1  5  1  0  0  0  0
  5  6  1  0  0  0  0
  6  7  1  0  0  0  0
M  CHG  1   4  -1
M  END

>  <name>
Mesna

>  <ROTATABLE_BONDCOUNT>
2

>  <HBDScore>
0.8333333333333334

>  <dipole>
9.14

>  <logD>
-2.78

>  <MPOScore>
5.833333333333333

>  <logDScore>
1.0

>  <MW>
141.18

>  <charge_dist(7.4)>
-1.00

>  <CNS>
FALSE

>  <ArRings>
0

>  <HBD>
1

>  <BALABAN_INDEX>
3.15

>  <bpKa>
0.0

>  <TPSAScore>
1.0

>  <MWScore>
1.0

>  <bpKaScore>
1.0

>  <logPScore>
1.0

>  <MPO_area>
94.44

>  <TPSA>
57.20

>  <logP>
-0.40

$$$$

  Mrv1722703221715202D          

 15 15  0  0  0  0            999 V2000
    0.0000    0.0000    0.0000 O   0  0  0  0  0  0  0  0  0  0  0  0
   -0.6524    0.5117    0.0000 C   0  0  0  0  0  0  0  0  0  0  0  0
   -0.5500    1.3303    0.0000 C   0  0  0  0  0  0  0  0  0  0  0  0
   -1.4198    0.2111    0.0000 C   0  0  0  0  0  0  0  0  0  0  0  0
   -1.2024    1.8420    0.0000 C   0  0  0  0  0  0  0  0  0  0  0  0
   -2.0722    0.7227    0.0000 C   0  0  0  0  0  0  0  0  0  0  0  0
   -1.1001    2.6606    0.0000 O   0  0  0  0  0  0  0  0  0  0  0  0
   -1.9699    1.5414    0.0000 C   0  0  0  0  0  0  0  0  0  0  0  0
   -2.8397    0.4221    0.0000 C   0  0  1  0  0  0  0  0  0  0  0  0
   -2.9549   -0.3838    0.0000 O   0  0  0  0  0  0  0  0  0  0  0  0
   -3.4921    0.9338    0.0000 C   0  0  0  0  0  0  0  0  0  0  0  0
   -4.2596    0.6332    0.0000 N   0  0  0  0  0  0  0  0  0  0  0  0
   -4.9120    1.1448    0.0000 C   0  0  0  0  0  0  0  0  0  0  0  0
   -5.6794    0.8443    0.0000 C   0  0  0  0  0  0  0  0  0  0  0  0
   -4.8096    1.9635    0.0000 C   0  0  0  0  0  0  0  0  0  0  0  0
  1  2  1  0  0  0  0
  2  3  2  0  0  0  0
  2  4  1  0  0  0  0
  3  5  1  0  0  0  0
  4  6  2  0  0  0  0
  5  7  1  0  0  0  0
  5  8  2  0  0  0  0
  6  9  1  0  0  0  0
  9 10  1  1  0  0  0
  9 11  1  0  0  0  0
 11 12  1  0  0  0  0
 12 13  1  0  0  0  0
 13 14  1  0  0  0  0
 13 15  1  0  0  0  0
  6  8  1  0  0  0  0
M  END

>  <name>
Metaproterenol

>  <ROTATABLE_BONDCOUNT>
4

>  <HBDScore>
0.0

>  <dipole>
2.28

>  <logD>
-0.94

>  <MPOScore>
4.15

>  <logDScore>
1.0

>  <MW>
211.261

>  <charge_dist(7.4)>
0.96

>  <CNS>
FALSE

>  <ArRings>
1

>  <HBD>
4

>  <BALABAN_INDEX>
2.18

>  <bpKa>
9.7

>  <TPSAScore>
1.0

>  <MWScore>
1.0

>  <bpKaScore>
0.15000000000000036

>  <logPScore>
1.0

>  <MPO_area>
52.5

>  <TPSA>
72.72

>  <logP>
0.21

$$$$

  Mrv1722703221715202D          

 16 17  0  0  0  0            999 V2000
    0.0000    0.0000    0.0000 O   0  0  0  0  0  0  0  0  0  0  0  0
    0.5963    0.5768    0.0000 C   0  0  0  0  0  0  0  0  0  0  0  0
    1.4065    0.4343    0.0000 O   0  0  0  0  0  0  0  0  0  0  0  0
    0.4796    1.4065    0.0000 N   0  0  0  0  0  0  0  0  0  0  0  0
    1.7954    1.1732    0.0000 C   0  0  2  0  0  0  0  0  0  0  0  0
    1.2185    1.7760    0.0000 C   0  0  0  0  0  0  0  0  0  0  0  0
    2.6121    1.2898    0.0000 C   0  0  0  0  0  0  0  0  0  0  0  0
    3.1112    0.6417    0.0000 O   0  0  0  0  0  0  0  0  0  0  0  0
    3.9278    0.7583    0.0000 C   0  0  0  0  0  0  0  0  0  0  0  0
    4.2389    1.5361    0.0000 C   0  0  0  0  0  0  0  0  0  0  0  0
    4.4269    0.1102    0.0000 C   0  0  0  0  0  0  0  0  0  0  0  0
    5.0557    1.6528    0.0000 C   0  0  0  0  0  0  0  0  0  0  0  0
    5.2436    0.2268    0.0000 C   0  0  0  0  0  0  0  0  0  0  0  0
    5.5548    1.0047    0.0000 C   0  0  0  0  0  0  0  0  0  0  0  0
    5.3668    2.4306    0.0000 C   0  0  0  0  0  0  0  0  0  0  0  0
    5.7427   -0.4213    0.0000 C   0  0  0  0  0  0  0  0  0  0  0  0
  1  2  2  0  0  0  0
  2  3  1  0  0  0  0
  2  4  1  0  0  0  0
  3  5  1  0  0  0  0
  4  6  1  0  0  0  0
  5  7  1  6  0  0  0
  7  8  1  0  0  0  0
  8  9  1  0  0  0  0
  9 10  2  0  0  0  0
  9 11  1  0  0  0  0
 10 12  1  0  0  0  0
 11 13  2  0  0  0  0
 12 14  2  0  0  0  0
 12 15  1  0  0  0  0
 13 16  1  0  0  0  0
  5  6  1  0  0  0  0
 13 14  1  0  0  0  0
M  END

>  <name>
Metaxalone

>  <ROTATABLE_BONDCOUNT>
3

>  <HBDScore>
0.8333333333333334

>  <dipole>
6.98

>  <logD>
2.37

>  <MPOScore>
5.648333333333333

>  <logDScore>
0.815

>  <MW>
221.256

>  <charge_dist(7.4)>
-0.00

>  <CNS>
FALSE

>  <ArRings>
1

>  <HBD>
1

>  <BALABAN_INDEX>
1.49

>  <bpKa>
-4.85

>  <TPSAScore>
1.0

>  <MWScore>
1.0

>  <bpKaScore>
1.0

>  <logPScore>
1.0

>  <MPO_area>
88.79

>  <TPSA>
47.56

>  <logP>
2.37

$$$$

  Mrv1722703221715202D          

 25 27  0  0  0  0            999 V2000
    0.0000    0.0000    0.0000 O   0  0  0  0  0  0  0  0  0  0  0  0
    0.1655    0.8145    0.0000 C   0  0  0  0  0  0  0  0  0  0  0  0
   -0.4518    1.3744    0.0000 O   0  0  0  0  0  0  0  0  0  0  0  0
    0.9481    1.0754    0.0000 C   0  0  0  0  0  0  0  0  0  0  0  0
   -1.2472    1.1263    0.0000 C   0  0  0  0  0  0  0  0  0  0  0  0
    1.5526    0.5282    0.0000 C   0  0  0  0  0  0  0  0  0  0  0  0
    1.1135    1.8899    0.0000 C   0  0  0  0  0  0  0  0  0  0  0  0
   -1.8644    1.6862    0.0000 C   0  0  0  0  0  0  0  0  0  0  0  0
    2.3352    0.7890    0.0000 C   0  0  0  0  0  0  0  0  0  0  0  0
    1.3744   -0.2736    0.0000 C   0  0  0  0  0  0  0  0  0  0  0  0
    1.8962    2.1507    0.0000 C   0  0  0  0  0  0  0  0  0  0  0  0
    0.4963    2.4498    0.0000 C   0  0  0  0  0  0  0  0  0  0  0  0
   -2.6597    1.4380    0.0000 N   0  3  0  0  0  0  0  0  0  0  0  0
    2.5007    1.6035    0.0000 O   0  0  0  0  0  0  0  0  0  0  0  0
    2.9397    0.2418    0.0000 C   0  0  0  0  0  0  0  0  0  0  0  0
    1.9789   -0.8208    0.0000 C   0  0  0  0  0  0  0  0  0  0  0  0
    2.0617    2.9652    0.0000 C   0  0  0  0  0  0  0  0  0  0  0  0
    0.6618    3.2642    0.0000 C   0  0  0  0  0  0  0  0  0  0  0  0
   -2.4116    0.6554    0.0000 C   0  0  0  0  0  0  0  0  0  0  0  0
   -3.4552    1.1899    0.0000 C   0  0  0  0  0  0  0  0  0  0  0  0
   -2.9207    2.2334    0.0000 C   0  0  0  0  0  0  0  0  0  0  0  0
    2.7616   -0.5600    0.0000 C   0  0  0  0  0  0  0  0  0  0  0  0
    1.4444    3.5252    0.0000 C   0  0  0  0  0  0  0  0  0  0  0  0
   -2.9716    0.0509    0.0000 C   0  0  0  0  0  0  0  0  0  0  0  0
   -3.6333    0.3882    0.0000 C   0  0  0  0  0  0  0  0  0  0  0  0
  1  2  2  0  0  0  0
  2  3  1  0  0  0  0
  2  4  1  0  0  0  0
  3  5  1  0  0  0  0
  4  6  1  0  0  0  0
  4  7  1  0  0  0  0
  5  8  1  0  0  0  0
  6  9  2  0  0  0  0
  6 10  1  0  0  0  0
  7 11  2  0  0  0  0
  7 12  1  0  0  0  0
  8 13  1  0  0  0  0
  9 14  1  0  0  0  0
  9 15  1  0  0  0  0
 10 16  2  0  0  0  0
 11 17  1  0  0  0  0
 12 18  2  0  0  0  0
 13 19  1  0  0  0  0
 13 20  1  0  0  0  0
 13 21  1  0  0  0  0
 15 22  2  0  0  0  0
 17 23  2  0  0  0  0
 19 24  1  0  0  0  0
 20 25  1  0  0  0  0
 11 14  1  0  0  0  0
 16 22  1  0  0  0  0
 18 23  1  0  0  0  0
M  CHG  1  13   1
M  END

>  <name>
Methantheline

>  <ROTATABLE_BONDCOUNT>
7

>  <HBDScore>
1.0

>  <dipole>
17.69

>  <logD>
-0.47

>  <MPOScore>
5.7765

>  <logDScore>
1.0

>  <MW>
340.442

>  <charge_dist(7.4)>
-0.00

>  <CNS>
FALSE

>  <ArRings>
2

>  <HBD>
0

>  <BALABAN_INDEX>
1.45

>  <bpKa>
-3.71

>  <TPSAScore>
0.7765000000000001

>  <MWScore>
1.0

>  <bpKaScore>
1.0

>  <logPScore>
1.0

>  <MPO_area>
92.55

>  <TPSA>
35.53

>  <logP>
-0.47

$$$$

  Mrv1722703221715202D          

 14 14  0  0  0  0            999 V2000
    0.0000    0.0000    0.0000 S   0  0  0  0  0  0  0  0  0  0  0  0
   -0.4243   -0.6943    0.0000 O   0  0  0  0  0  0  0  0  0  0  0  0
    0.4115    0.7072    0.0000 O   0  0  0  0  0  0  0  0  0  0  0  0
    0.6943   -0.4115    0.0000 N   0  0  0  0  0  0  0  0  0  0  0  0
   -0.7072    0.4243    0.0000 C   0  0  0  0  0  0  0  0  0  0  0  0
   -1.4659    0.1093    0.0000 S   0  0  0  0  0  0  0  0  0  0  0  0
   -0.7843    1.2473    0.0000 N   0  0  0  0  0  0  0  0  0  0  0  0
   -2.0124    0.7329    0.0000 C   0  0  0  0  0  0  0  0  0  0  0  0
   -1.5880    1.4337    0.0000 N   0  0  0  0  0  0  0  0  0  0  0  0
   -2.8353    0.6686    0.0000 N   0  0  0  0  0  0  0  0  0  0  0  0
   -1.9159    2.1924    0.0000 C   0  0  0  0  0  0  0  0  0  0  0  0
   -3.1889   -0.0707    0.0000 C   0  0  0  0  0  0  0  0  0  0  0  0
   -2.7260   -0.7329    0.0000 O   0  0  0  0  0  0  0  0  0  0  0  0
   -4.0119   -0.1350    0.0000 C   0  0  0  0  0  0  0  0  0  0  0  0
  1  2  2  0  0  0  0
  1  3  2  0  0  0  0
  1  4  1  0  0  0  0
  1  5  1  0  0  0  0
  5  6  1  0  0  0  0
  5  7  2  0  0  0  0
  6  8  1  0  0  0  0
  7  9  1  0  0  0  0
  8 10  2  0  0  0  0
  9 11  1  0  0  0  0
 10 12  1  0  0  0  0
 12 13  2  0  0  0  0
 12 14  1  0  0  0  0
  8  9  1  0  0  0  0
M  END

>  <name>
Methazolamide

>  <ROTATABLE_BONDCOUNT>
1

>  <HBDScore>
0.8333333333333334

>  <dipole>
7.83

>  <logD>
-0.93

>  <MPOScore>
5.327

>  <logDScore>
1.0

>  <MW>
236.26

>  <charge_dist(7.4)>
-0.61

>  <CNS>
FALSE

>  <ArRings>
1

>  <HBD>
1

>  <BALABAN_INDEX>
2.51

>  <bpKa>
-3.64

>  <TPSAScore>
0.4936666666666667

>  <MWScore>
1.0

>  <bpKaScore>
1.0

>  <logPScore>
1.0

>  <MPO_area>
78.97

>  <TPSA>
105.19

>  <logP>
-0.59

$$$$

  Mrv1722703221715202D          

 10 12  0  0  0  0            999 V2000
    0.0000    0.0000    0.0000 N   0  0  0  0  0  0  0  0  0  0  0  0
   -0.3802   -0.7322    0.0000 C   0  0  0  0  0  0  0  0  0  0  0  0
    0.8167    0.0704    0.0000 C   0  0  0  0  0  0  0  0  0  0  0  0
   -0.8448   -0.0422    0.0000 C   0  0  0  0  0  0  0  0  0  0  0  0
    0.0563   -1.4081    0.0000 N   0  0  0  0  0  0  0  0  0  0  0  0
    1.2532   -0.6055    0.0000 N   0  0  0  0  0  0  0  0  0  0  0  0
   -1.2250   -0.7744    0.0000 N   0  0  0  0  0  0  0  0  0  0  0  0
    0.8730   -1.3377    0.0000 C   0  0  0  0  0  0  0  0  0  0  0  0
   -0.7885   -1.4503    0.0000 C   0  0  0  0  0  0  0  0  0  0  0  0
   -0.5492   -0.2816    0.0000 C   0  0  0  0  0  0  0  0  0  0  0  0
  1  2  1  0  0  0  0
  1  3  1  0  0  0  0
  1  4  1  0  0  0  0
  2  5  1  0  0  0  0
  3  6  1  0  0  0  0
  4  7  1  0  0  0  0
  5  8  1  0  0  0  0
  5  9  1  0  0  0  0
  6 10  1  0  0  0  0
  6  8  1  0  0  0  0
  7  9  1  0  0  0  0
  7 10  1  0  0  0  0
M  END

>  <name>
Methenamine

>  <ROTATABLE_BONDCOUNT>
0

>  <HBDScore>
1.0

>  <dipole>
0.02

>  <logD>
0.38

>  <MPOScore>
5.0

>  <logDScore>
1.0

>  <MW>
140.190

>  <charge_dist(7.4)>
0.03

>  <CNS>
FALSE

>  <ArRings>
0

>  <HBD>
0

>  <BALABAN_INDEX>
1.90

>  <bpKa>
5.88

>  <TPSAScore>
0.0

>  <MWScore>
1.0

>  <bpKaScore>
1.0

>  <logPScore>
1.0

>  <MPO_area>
66.67

>  <TPSA>
12.96

>  <logP>
0.39

$$$$

  Mrv1722703221715202D          

  7  7  0  0  0  0            999 V2000
    0.0000    0.0000    0.0000 S   0  0  0  0  0  0  0  0  0  0  0  0
    0.6650   -0.4824    0.0000 C   0  0  0  0  0  0  0  0  0  0  0  0
    0.6584   -1.3038    0.0000 N   0  0  0  0  0  0  0  0  0  0  0  0
    1.4473   -0.2217    0.0000 N   0  0  0  0  0  0  0  0  0  0  0  0
    1.4408   -1.5516    0.0000 C   0  0  0  0  0  0  0  0  0  0  0  0
   -0.0196   -1.7862    0.0000 C   0  0  0  0  0  0  0  0  0  0  0  0
    1.9297   -0.8866    0.0000 C   0  0  0  0  0  0  0  0  0  0  0  0
  1  2  2  0  0  0  0
  2  3  1  0  0  0  0
  2  4  1  0  0  0  0
  3  5  1  0  0  0  0
  3  6  1  0  0  0  0
  4  7  1  0  0  0  0
  5  7  2  0  0  0  0
M  END

>  <name>
Methimazole

>  <ROTATABLE_BONDCOUNT>
0

>  <HBDScore>
0.8333333333333334

>  <dipole>
5.16

>  <logD>
0.75

>  <MPOScore>
4.833333333333333

>  <logDScore>
1.0

>  <MW>
114.17

>  <charge_dist(7.4)>
-0.00

>  <CNS>
FALSE

>  <ArRings>
1

>  <HBD>
1

>  <BALABAN_INDEX>
1.99

>  <bpKa>
0.0

>  <TPSAScore>
0.0

>  <MWScore>
1.0

>  <bpKaScore>
1.0

>  <logPScore>
1.0

>  <MPO_area>
63.89

>  <TPSA>
15.27

>  <logP>
0.75

$$$$

  Mrv1722703221715202D          

 23 26  0  0  1  0            999 V2000
    0.0000    0.0000    0.0000 O   0  0  0  0  0  0  0  0  0  0  0  0
    0.0976    0.8269    0.0000 C   0  0  0  0  0  0  0  0  0  0  0  0
   -0.5729    1.3347    0.0000 O   0  0  0  0  0  0  0  0  0  0  0  0
    0.8529    1.1589    0.0000 C   0  0  1  0  0  0  0  0  0  0  0  0
   -1.3412    1.0156    0.0000 C   0  0  2  0  0  0  0  0  0  0  0  0
    1.5104    0.6641    0.0000 C   0  0  0  0  0  0  0  0  0  0  0  0
    0.9505    1.9857    0.0000 C   0  0  0  0  0  0  0  0  0  0  0  0
   -2.0118    1.5235    0.0000 C   0  0  0  0  0  0  0  0  0  0  0  0
   -1.4519    0.2018    0.0000 C   0  0  0  0  0  0  0  0  0  0  0  0
    1.3998   -0.1497    0.0000 C   0  0  0  0  0  0  0  0  0  0  0  0
    2.2657    0.9961    0.0000 C   0  0  0  0  0  0  0  0  0  0  0  0
    1.7058    2.3178    0.0000 O   0  0  0  0  0  0  0  0  0  0  0  0
   -2.7800    1.2044    0.0000 C   0  0  1  0  0  0  0  0  0  0  0  0
   -2.2592   -0.0260    0.0000 C   0  0  2  0  0  0  0  0  0  0  0  0
    2.0573   -0.6445    0.0000 C   0  0  0  0  0  0  0  0  0  0  0  0
    2.9232    0.5013    0.0000 C   0  0  0  0  0  0  0  0  0  0  0  0
   -2.0769    0.7813    0.0000 N   0  3  0  0  0  0  0  0  0  0  0  0
   -3.4115    0.6706    0.0000 C   0  0  2  0  0  0  0  0  0  0  0  0
   -3.0925   -0.0911    0.0000 C   0  0  1  0  0  0  0  0  0  0  0  0
    2.8125   -0.3125    0.0000 C   0  0  0  0  0  0  0  0  0  0  0  0
   -1.5625    1.4323    0.0000 C   0  0  0  0  0  0  0  0  0  0  0  0
   -1.6472    0.7487    0.0000 C   0  0  0  0  0  0  0  0  0  0  0  0
   -3.9193    0.0130    0.0000 O   0  0  0  0  0  0  0  0  0  0  0  0
  1  2  2  0  0  0  0
  2  3  1  0  0  0  0
  2  4  1  0  0  0  0
  5  3  1  1  0  0  0
  4  6  1  0  0  0  0
  4  7  1  6  0  0  0
  5  8  1  0  0  0  0
  5  9  1  0  0  0  0
  6 10  2  0  0  0  0
  6 11  1  0  0  0  0
  7 12  1  0  0  0  0
  8 13  1  0  0  0  0
  9 14  1  0  0  0  0
 10 15  1  0  0  0  0
 11 16  2  0  0  0  0
 13 17  1  6  0  0  0
 13 18  1  0  0  0  0
 14 19  1  0  0  0  0
 15 20  2  0  0  0  0
 17 21  1  0  0  0  0
 17 22  1  0  0  0  0
 18 23  1  6  0  0  0
 14 17  1  6  0  0  0
 16 20  1  0  0  0  0
 18 19  1  0  0  0  0
 19 23  1  6  0  0  0
M  CHG  1  17   1
M  END

>  <name>
Methscopolamine

>  <ROTATABLE_BONDCOUNT>
5

>  <HBDScore>
0.8333333333333334

>  <dipole>
19.52

>  <logD>
-3.27

>  <MPOScore>
5.833333333333333

>  <logDScore>
1.0

>  <MW>
318.392

>  <charge_dist(7.4)>
-0.00

>  <CNS>
FALSE

>  <ArRings>
1

>  <HBD>
1

>  <BALABAN_INDEX>
1.31

>  <bpKa>
-2.74

>  <TPSAScore>
1.0

>  <MWScore>
1.0

>  <bpKaScore>
1.0

>  <logPScore>
1.0

>  <MPO_area>
94.44

>  <TPSA>
59.06

>  <logP>
-3.27

$$$$

  Mrv1722703221715202D          

 22 25  0  0  0  0            999 V2000
    0.0000    0.0000    0.0000 O   0  0  0  0  0  0  0  0  0  0  0  0
   -0.8248    0.0193    0.0000 C   0  0  0  0  0  0  0  0  0  0  0  0
   -1.2500   -0.6766    0.0000 C   0  0  0  0  0  0  0  0  0  0  0  0
   -1.2307    0.7410    0.0000 C   0  0  0  0  0  0  0  0  0  0  0  0
   -2.0748   -0.6572    0.0000 C   0  0  0  0  0  0  0  0  0  0  0  0
   -2.0555    0.7603    0.0000 C   0  0  0  0  0  0  0  0  0  0  0  0
   -2.4807    0.0645    0.0000 C   0  0  1  0  0  0  0  0  0  0  0  0
   -2.5001   -1.3531    0.0000 C   0  0  0  0  0  0  0  0  0  0  0  0
   -3.3055    0.0838    0.0000 C   0  0  1  0  0  0  0  0  0  0  0  0
   -2.8867    0.7861    0.0000 C   0  0  0  0  0  0  0  0  0  0  0  0
   -3.3248   -1.3338    0.0000 C   0  0  0  0  0  0  0  0  0  0  0  0
   -3.7308   -0.6121    0.0000 C   0  0  2  0  0  0  0  0  0  0  0  0
   -3.7115    0.8054    0.0000 C   0  0  0  0  0  0  0  0  0  0  0  0
   -4.5556   -0.5928    0.0000 C   0  0  2  0  0  0  0  0  0  0  0  0
   -4.5362    0.8248    0.0000 C   0  0  0  0  0  0  0  0  0  0  0  0
   -4.9615    0.1289    0.0000 C   0  0  1  0  0  0  0  0  0  0  0  0
   -5.1226   -1.1856    0.0000 C   0  0  0  0  0  0  0  0  0  0  0  0
   -5.7734   -0.0193    0.0000 C   0  0  1  0  0  0  0  0  0  0  0  0
   -5.3546    0.8570    0.0000 C   0  0  0  0  0  0  0  0  0  0  0  0
   -5.8700   -0.8312    0.0000 C   0  0  0  0  0  0  0  0  0  0  0  0
   -5.9474    0.7861    0.0000 O   0  0  0  0  0  0  0  0  0  0  0  0
   -6.5982    0.0000    0.0000 C   0  0  0  0  0  0  0  0  0  0  0  0
  1  2  2  0  0  0  0
  2  3  1  0  0  0  0
  2  4  1  0  0  0  0
  3  5  2  0  0  0  0
  4  6  1  0  0  0  0
  5  7  1  0  0  0  0
  5  8  1  0  0  0  0
  7  9  1  0  0  0  0
  7 10  1  1  0  0  0
  8 11  1  0  0  0  0
  9 12  1  0  0  0  0
  9 13  1  1  0  0  0
 12 14  1  0  0  0  0
 13 15  1  0  0  0  0
 14 16  1  0  0  0  0
 14 17  1  1  0  0  0
 16 18  1  0  0  0  0
 16 19  1  1  0  0  0
 17 20  1  0  0  0  0
 18 21  1  1  0  0  0
 18 22  1  0  0  0  0
  6  7  1  0  0  0  0
 12 11  1  6  0  0  0
 15 16  1  0  0  0  0
 18 20  1  0  0  0  0
M  END

>  <name>
Methyltestosterone

>  <ROTATABLE_BONDCOUNT>
0

>  <HBDScore>
0.8333333333333334

>  <dipole>
1.73

>  <logD>
3.65

>  <MPOScore>
4.548333333333334

>  <logDScore>
0.17500000000000004

>  <MW>
302.458

>  <charge_dist(7.4)>
0.00

>  <CNS>
FALSE

>  <ArRings>
0

>  <HBD>
1

>  <BALABAN_INDEX>
1.64

>  <bpKa>
-0.53

>  <TPSAScore>
0.8649999999999999

>  <MWScore>
1.0

>  <bpKaScore>
1.0

>  <logPScore>
0.675

>  <MPO_area>
57.36

>  <TPSA>
37.30

>  <logP>
3.65

$$$$

  Mrv1722703221715202D          

 24 26  0  0  0  0            999 V2000
    0.0000    0.0000    0.0000 Cl  0  0  0  0  0  0  0  0  0  0  0  0
    0.7496   -0.3324    0.0000 C   0  0  0  0  0  0  0  0  0  0  0  0
    0.8278   -1.1537    0.0000 C   0  0  0  0  0  0  0  0  0  0  0  0
    1.4210    0.1630    0.0000 C   0  0  0  0  0  0  0  0  0  0  0  0
    0.1434   -1.6360    0.0000 S   0  0  0  0  0  0  0  0  0  0  0  0
    1.5774   -1.4861    0.0000 C   0  0  0  0  0  0  0  0  0  0  0  0
    2.1705   -0.1695    0.0000 C   0  0  0  0  0  0  0  0  0  0  0  0
   -0.3520   -0.9517    0.0000 O   0  0  0  0  0  0  0  0  0  0  0  0
    0.6257   -2.3074    0.0000 O   0  0  0  0  0  0  0  0  0  0  0  0
   -0.5410   -2.1184    0.0000 N   0  0  0  0  0  0  0  0  0  0  0  0
    2.2488   -0.9907    0.0000 C   0  0  0  0  0  0  0  0  0  0  0  0
    2.8419    0.3259    0.0000 N   0  0  0  0  0  0  0  0  0  0  0  0
    2.9983   -1.3232    0.0000 C   0  0  0  0  0  0  0  0  0  0  0  0
    3.5915   -0.0065    0.0000 C   0  0  1  0  0  0  0  0  0  0  0  0
    3.0766   -2.1445    0.0000 O   0  0  0  0  0  0  0  0  0  0  0  0
    3.6697   -0.8278    0.0000 N   0  0  0  0  0  0  0  0  0  0  0  0
    4.2628    0.4889    0.0000 C   0  0  0  0  0  0  0  0  0  0  0  0
    4.4193   -1.1602    0.0000 C   0  0  0  0  0  0  0  0  0  0  0  0
    5.0906   -0.6648    0.0000 C   0  0  0  0  0  0  0  0  0  0  0  0
    4.4975   -1.9815    0.0000 C   0  0  0  0  0  0  0  0  0  0  0  0
    5.8402   -0.9973    0.0000 C   0  0  0  0  0  0  0  0  0  0  0  0
    4.9994    0.1695    0.0000 C   0  0  0  0  0  0  0  0  0  0  0  0
    5.2471   -2.3139    0.0000 C   0  0  0  0  0  0  0  0  0  0  0  0
    5.9184   -1.8185    0.0000 C   0  0  0  0  0  0  0  0  0  0  0  0
  1  2  1  0  0  0  0
  2  3  2  0  0  0  0
  2  4  1  0  0  0  0
  3  5  1  0  0  0  0
  3  6  1  0  0  0  0
  4  7  2  0  0  0  0
  5  8  2  0  0  0  0
  5  9  2  0  0  0  0
  5 10  1  0  0  0  0
  6 11  2  0  0  0  0
  7 12  1  0  0  0  0
 11 13  1  0  0  0  0
 12 14  1  0  0  0  0
 13 15  2  0  0  0  0
 13 16  1  0  0  0  0
 14 17  1  6  0  0  0
 16 18  1  0  0  0  0
 18 19  2  0  0  0  0
 18 20  1  0  0  0  0
 19 21  1  0  0  0  0
 19 22  1  0  0  0  0
 20 23  2  0  0  0  0
 21 24  2  0  0  0  0
  7 11  1  0  0  0  0
 14 16  1  0  0  0  0
 23 24  1  0  0  0  0
M  END

>  <name>
Metolazone

>  <ROTATABLE_BONDCOUNT>
2

>  <HBDScore>
0.5

>  <dipole>
15.20

>  <logD>
2.94

>  <MPOScore>
4.90502380952381

>  <logDScore>
0.53

>  <MW>
365.83

>  <charge_dist(7.4)>
-0.01

>  <CNS>
FALSE

>  <ArRings>
2

>  <HBD>
2

>  <BALABAN_INDEX>
1.65

>  <bpKa>
-1.64

>  <TPSAScore>
0.9166666666666666

>  <MWScore>
0.958357142857143

>  <bpKaScore>
1.0

>  <logPScore>
1.0

>  <MPO_area>
68.13

>  <TPSA>
92.50

>  <logP>
2.94

$$$$

  Mrv1722703221715202D          

 12 12  0  0  0  0            999 V2000
    0.0000    0.0000    0.0000 O   0  0  0  0  0  0  0  0  0  0  0  0
   -0.7000   -0.4407    0.0000 N   0  3  0  0  0  0  0  0  0  0  0  0
   -0.6676   -1.2574    0.0000 O   0  5  0  0  0  0  0  0  0  0  0  0
   -1.4389   -0.0583    0.0000 C   0  0  0  0  0  0  0  0  0  0  0  0
   -1.5685    0.7648    0.0000 N   0  0  0  0  0  0  0  0  0  0  0  0
   -2.1778   -0.4213    0.0000 C   0  0  0  0  0  0  0  0  0  0  0  0
   -2.3917    0.9009    0.0000 C   0  0  0  0  0  0  0  0  0  0  0  0
   -0.9917    1.3547    0.0000 C   0  0  0  0  0  0  0  0  0  0  0  0
   -2.7676    0.1685    0.0000 N   0  0  0  0  0  0  0  0  0  0  0  0
   -2.7676    1.6399    0.0000 C   0  0  0  0  0  0  0  0  0  0  0  0
   -0.2009    1.1473    0.0000 C   0  0  0  0  0  0  0  0  0  0  0  0
    0.3759    1.7371    0.0000 O   0  0  0  0  0  0  0  0  0  0  0  0
  1  2  2  0  0  0  0
  2  3  1  0  0  0  0
  2  4  1  0  0  0  0
  4  5  1  0  0  0  0
  4  6  2  0  0  0  0
  5  7  1  0  0  0  0
  5  8  1  0  0  0  0
  6  9  1  0  0  0  0
  7 10  1  0  0  0  0
  8 11  1  0  0  0  0
 11 12  1  0  0  0  0
  7  9  2  0  0  0  0
M  CHG  2   2   1   3  -1
M  END

>  <name>
Metronidazole

>  <ROTATABLE_BONDCOUNT>
3

>  <HBDScore>
0.8333333333333334

>  <dipole>
8.83

>  <logD>
-0.46

>  <MPOScore>
5.833333333333333

>  <logDScore>
1.0

>  <MW>
171.156

>  <charge_dist(7.4)>
0.00

>  <CNS>
FALSE

>  <ArRings>
1

>  <HBD>
1

>  <BALABAN_INDEX>
2.51

>  <bpKa>
2.33

>  <TPSAScore>
1.0

>  <MWScore>
1.0

>  <bpKaScore>
1.0

>  <logPScore>
1.0

>  <MPO_area>
94.44

>  <TPSA>
81.19

>  <logP>
-0.46

$$$$

  Mrv1722703221715202D          

 14 14  0  0  0  0            999 V2000
    0.0000    0.0000    0.0000 O   0  0  0  0  0  0  0  0  0  0  0  0
   -0.1419    0.8256    0.0000 C   0  0  0  0  0  0  0  0  0  0  0  0
   -0.9288    1.1223    0.0000 O   0  0  0  0  0  0  0  0  0  0  0  0
    0.4902    1.3609    0.0000 C   0  0  1  0  0  0  0  0  0  0  0  0
    1.1223    1.8963    0.0000 N   0  0  0  0  0  0  0  0  0  0  0  0
    1.0127    0.7289    0.0000 C   0  0  0  0  0  0  0  0  0  0  0  0
   -0.0452    2.0060    0.0000 C   0  0  0  0  0  0  0  0  0  0  0  0
    1.8254    0.8707    0.0000 C   0  0  0  0  0  0  0  0  0  0  0  0
    2.1092    1.6577    0.0000 C   0  0  0  0  0  0  0  0  0  0  0  0
    2.3478    0.2387    0.0000 C   0  0  0  0  0  0  0  0  0  0  0  0
    2.9219    1.7996    0.0000 C   0  0  0  0  0  0  0  0  0  0  0  0
    3.1605    0.3805    0.0000 C   0  0  0  0  0  0  0  0  0  0  0  0
    3.4443    1.1675    0.0000 C   0  0  0  0  0  0  0  0  0  0  0  0
    4.2570    1.3094    0.0000 O   0  0  0  0  0  0  0  0  0  0  0  0
  1  2  2  0  0  0  0
  2  3  1  0  0  0  0
  4  2  1  1  0  0  0
  4  5  1  0  0  0  0
  4  6  1  0  0  0  0
  4  7  1  0  0  0  0
  6  8  1  0  0  0  0
  8  9  2  0  0  0  0
  8 10  1  0  0  0  0
  9 11  1  0  0  0  0
 10 12  2  0  0  0  0
 11 13  2  0  0  0  0
 13 14  1  0  0  0  0
 12 13  1  0  0  0  0
M  END

>  <name>
Metyrosine

>  <ROTATABLE_BONDCOUNT>
3

>  <HBDScore>
0.16666666666666674

>  <dipole>
1.93

>  <logD>
-1.06

>  <MPOScore>
4.201666666666667

>  <logDScore>
1.0

>  <MW>
195.218

>  <charge_dist(7.4)>
-0.01

>  <CNS>
FALSE

>  <ArRings>
1

>  <HBD>
3

>  <BALABAN_INDEX>
2.37

>  <bpKa>
9.93

>  <TPSAScore>
1.0

>  <MWScore>
1.0

>  <bpKaScore>
0.03500000000000014

>  <logPScore>
1.0

>  <MPO_area>
53.46

>  <TPSA>
83.55

>  <logP>
-1.06

$$$$

  Mrv1722703221715202D          

 18 18  0  0  0  0            999 V2000
    0.0000    0.0000    0.0000 O   0  0  0  0  0  0  0  0  0  0  0  0
   -0.1286   -0.8102    0.0000 C   0  0  0  0  0  0  0  0  0  0  0  0
    0.5080   -1.3181    0.0000 N   0  0  0  0  0  0  0  0  0  0  0  0
   -0.9066   -1.1059    0.0000 C   0  0  0  0  0  0  0  0  0  0  0  0
    1.2731   -1.0095    0.0000 C   0  0  0  0  0  0  0  0  0  0  0  0
   -1.5560   -0.5851    0.0000 N   0  0  0  0  0  0  0  0  0  0  0  0
    1.9096   -1.5174    0.0000 C   0  0  2  0  0  0  0  0  0  0  0  0
    1.7810   -2.3275    0.0000 O   0  0  0  0  0  0  0  0  0  0  0  0
    2.6748   -1.2088    0.0000 C   0  0  0  0  0  0  0  0  0  0  0  0
    3.3113   -1.7167    0.0000 C   0  0  0  0  0  0  0  0  0  0  0  0
    2.7905   -0.3858    0.0000 C   0  0  0  0  0  0  0  0  0  0  0  0
    3.1827   -2.5269    0.0000 O   0  0  0  0  0  0  0  0  0  0  0  0
    4.0764   -1.4081    0.0000 C   0  0  0  0  0  0  0  0  0  0  0  0
    3.5556   -0.0772    0.0000 C   0  0  0  0  0  0  0  0  0  0  0  0
    3.8193   -3.0348    0.0000 C   0  0  0  0  0  0  0  0  0  0  0  0
    4.1922   -0.5851    0.0000 C   0  0  0  0  0  0  0  0  0  0  0  0
    3.6714    0.7458    0.0000 O   0  0  0  0  0  0  0  0  0  0  0  0
    4.4365    1.0545    0.0000 C   0  0  0  0  0  0  0  0  0  0  0  0
  1  2  2  0  0  0  0
  2  3  1  0  0  0  0
  2  4  1  0  0  0  0
  3  5  1  0  0  0  0
  4  6  1  0  0  0  0
  5  7  1  0  0  0  0
  7  8  1  1  0  0  0
  7  9  1  0  0  0  0
  9 10  2  0  0  0  0
  9 11  1  0  0  0  0
 10 12  1  0  0  0  0
 10 13  1  0  0  0  0
 11 14  2  0  0  0  0
 12 15  1  0  0  0  0
 13 16  2  0  0  0  0
 14 17  1  0  0  0  0
 17 18  1  0  0  0  0
 14 16  1  0  0  0  0
M  END

>  <name>
Midodrine

>  <ROTATABLE_BONDCOUNT>
6

>  <HBDScore>
0.16666666666666674

>  <dipole>
6.71

>  <logD>
-1.76

>  <MPOScore>
4.969666666666667

>  <logDScore>
1.0

>  <MW>
254.286

>  <charge_dist(7.4)>
0.85

>  <CNS>
FALSE

>  <ArRings>
1

>  <HBD>
3

>  <BALABAN_INDEX>
2.47

>  <bpKa>
8.14

>  <TPSAScore>
0.8729999999999999

>  <MWScore>
1.0

>  <bpKaScore>
0.9299999999999997

>  <logPScore>
1.0

>  <MPO_area>
67.57

>  <TPSA>
93.81

>  <logP>
-0.95

$$$$

  Mrv1722703221715202D          

 14 14  0  0  0  0            999 V2000
    0.0000    0.0000    0.0000 O   0  0  0  0  0  0  0  0  0  0  0  0
    0.7965   -0.2150    0.0000 C   0  0  2  0  0  0  0  0  0  0  0  0
    0.9988   -1.0115    0.0000 C   0  0  1  0  0  0  0  0  0  0  0  0
    1.3781    0.3730    0.0000 C   0  0  2  0  0  0  0  0  0  0  0  0
    0.4046   -1.5867    0.0000 O   0  0  0  0  0  0  0  0  0  0  0  0
    1.7953   -1.2264    0.0000 C   0  0  1  0  0  0  0  0  0  0  0  0
    1.1632    1.1821    0.0000 O   0  0  0  0  0  0  0  0  0  0  0  0
    2.1746    0.1580    0.0000 C   0  0  0  0  0  0  0  0  0  0  0  0
    2.3769   -0.6385    0.0000 N   0  0  0  0  0  0  0  0  0  0  0  0
    1.9976   -2.0229    0.0000 C   0  0  0  0  0  0  0  0  0  0  0  0
    3.1734   -0.8534    0.0000 C   0  0  0  0  0  0  0  0  0  0  0  0
    1.4034   -2.5982    0.0000 O   0  0  0  0  0  0  0  0  0  0  0  0
    3.7550   -0.2655    0.0000 C   0  0  0  0  0  0  0  0  0  0  0  0
    4.5515   -0.4805    0.0000 O   0  0  0  0  0  0  0  0  0  0  0  0
  2  1  1  1  0  0  0
  2  3  1  0  0  0  0
  2  4  1  0  0  0  0
  3  5  1  6  0  0  0
  3  6  1  0  0  0  0
  4  7  1  6  0  0  0
  4  8  1  0  0  0  0
  6  9  1  0  0  0  0
  6 10  1  1  0  0  0
  9 11  1  0  0  0  0
 10 12  1  0  0  0  0
 11 13  1  0  0  0  0
 13 14  1  0  0  0  0
  8  9  1  0  0  0  0
M  END

>  <name>
Miglitol

>  <ROTATABLE_BONDCOUNT>
3

>  <HBDScore>
0.0

>  <dipole>
2.64

>  <logD>
-3.60

>  <MPOScore>
4.520333333333333

>  <logDScore>
1.0

>  <MW>
207.226

>  <charge_dist(7.4)>
0.61

>  <CNS>
FALSE

>  <ArRings>
0

>  <HBD>
5

>  <BALABAN_INDEX>
2.66

>  <bpKa>
7.6

>  <TPSAScore>
0.5203333333333333

>  <MWScore>
1.0

>  <bpKaScore>
1.0

>  <logPScore>
1.0

>  <MPO_area>
58.67

>  <TPSA>
104.39

>  <logP>
-3.19

$$$$

  Mrv1722703221715202D          

 27 26  0  0  0  0            999 V2000
    0.0000    0.0000    0.0000 P   0  0  2  0  0  0  0  0  0  0  0  0
    0.2958   -0.7652    0.0000 O   0  0  0  0  0  0  0  0  0  0  0  0
   -0.7780   -0.2958    0.0000 O   0  0  0  0  0  0  0  0  0  0  0  0
    0.7652    0.3086    0.0000 O   0  0  0  0  0  0  0  0  0  0  0  0
   -0.3086    0.7780    0.0000 O   0  5  0  0  0  0  0  0  0  0  0  0
   -0.9066   -1.1059    0.0000 C   0  0  0  0  0  0  0  0  0  0  0  0
    1.4017   -0.1993    0.0000 C   0  0  0  0  0  0  0  0  0  0  0  0
   -1.6846   -1.4017    0.0000 C   0  0  0  0  0  0  0  0  0  0  0  0
    2.1668    0.1093    0.0000 C   0  0  0  0  0  0  0  0  0  0  0  0
   -1.8132   -2.2118    0.0000 N   0  3  0  0  0  0  0  0  0  0  0  0
    2.8034   -0.3987    0.0000 C   0  0  0  0  0  0  0  0  0  0  0  0
   -2.6362   -2.0833    0.0000 C   0  0  0  0  0  0  0  0  0  0  0  0
   -1.0031   -2.3276    0.0000 C   0  0  0  0  0  0  0  0  0  0  0  0
   -1.9418   -3.0220    0.0000 C   0  0  0  0  0  0  0  0  0  0  0  0
    3.5685   -0.0900    0.0000 C   0  0  0  0  0  0  0  0  0  0  0  0
    4.2051   -0.5980    0.0000 C   0  0  0  0  0  0  0  0  0  0  0  0
    4.9702   -0.2893    0.0000 C   0  0  0  0  0  0  0  0  0  0  0  0
    5.6068   -0.7973    0.0000 C   0  0  0  0  0  0  0  0  0  0  0  0
    6.3719   -0.4887    0.0000 C   0  0  0  0  0  0  0  0  0  0  0  0
    7.0085   -0.9966    0.0000 C   0  0  0  0  0  0  0  0  0  0  0  0
    7.7736   -0.6880    0.0000 C   0  0  0  0  0  0  0  0  0  0  0  0
    8.4101   -1.1959    0.0000 C   0  0  0  0  0  0  0  0  0  0  0  0
    9.1753   -0.8873    0.0000 C   0  0  0  0  0  0  0  0  0  0  0  0
    9.8118   -1.3953    0.0000 C   0  0  0  0  0  0  0  0  0  0  0  0
   10.5770   -1.0867    0.0000 C   0  0  0  0  0  0  0  0  0  0  0  0
   11.2135   -1.5946    0.0000 C   0  0  0  0  0  0  0  0  0  0  0  0
   11.9787   -1.2859    0.0000 C   0  0  0  0  0  0  0  0  0  0  0  0
  1  2  2  0  0  0  0
  1  3  1  6  0  0  0
  1  4  1  0  0  0  0
  1  5  1  0  0  0  0
  3  6  1  0  0  0  0
  4  7  1  0  0  0  0
  6  8  1  0  0  0  0
  7  9  1  0  0  0  0
  8 10  1  0  0  0  0
  9 11  1  0  0  0  0
 10 12  1  0  0  0  0
 10 13  1  0  0  0  0
 10 14  1  0  0  0  0
 11 15  1  0  0  0  0
 15 16  1  0  0  0  0
 16 17  1  0  0  0  0
 17 18  1  0  0  0  0
 18 19  1  0  0  0  0
 19 20  1  0  0  0  0
 20 21  1  0  0  0  0
 21 22  1  0  0  0  0
 22 23  1  0  0  0  0
 23 24  1  0  0  0  0
 24 25  1  0  0  0  0
 25 26  1  0  0  0  0
 26 27  1  0  0  0  0
M  CHG  2   5  -1  10   1
M  END

>  <name>
Miltefosine

>  <ROTATABLE_BONDCOUNT>
20

>  <HBDScore>
1.0

>  <dipole>
28.00

>  <logD>
4.27

>  <MPOScore>
4.660171428571428

>  <logDScore>
0.0

>  <MW>
407.576

>  <charge_dist(7.4)>
-1.00

>  <CNS>
FALSE

>  <ArRings>
0

>  <HBD>
0

>  <BALABAN_INDEX>
3.30

>  <bpKa>
0.0

>  <TPSAScore>
1.0

>  <MWScore>
0.6601714285714284

>  <bpKaScore>
1.0

>  <logPScore>
1.0

>  <MPO_area>
61.0

>  <TPSA>
58.59

>  <logP>
2.25

$$$$

  Mrv1722703221715202D          

 33 36  0  0  0  0            999 V2000
    0.0000    0.0000    0.0000 O   0  0  0  0  0  0  0  0  0  0  0  0
    0.0708    0.8234    0.0000 C   0  0  0  0  0  0  0  0  0  0  0  0
    0.8105    1.1707    0.0000 C   0  0  0  0  0  0  0  0  0  0  0  0
   -0.6046    1.3058    0.0000 C   0  0  0  0  0  0  0  0  0  0  0  0
    1.4730    0.7012    0.0000 C   0  0  0  0  0  0  0  0  0  0  0  0
    0.8812    1.9941    0.0000 C   0  0  0  0  0  0  0  0  0  0  0  0
   -1.3573    0.9713    0.0000 C   0  0  0  0  0  0  0  0  0  0  0  0
   -0.5339    2.1291    0.0000 C   0  0  2  0  0  0  0  0  0  0  0  0
    1.3894   -0.1094    0.0000 O   0  0  0  0  0  0  0  0  0  0  0  0
    2.2128    1.0485    0.0000 C   0  0  0  0  0  0  0  0  0  0  0  0
    1.6210    2.3414    0.0000 C   0  0  0  0  0  0  0  0  0  0  0  0
    0.2058    2.4765    0.0000 C   0  0  0  0  0  0  0  0  0  0  0  0
   -1.4409    0.1608    0.0000 O   0  0  0  0  0  0  0  0  0  0  0  0
   -2.0327    1.4537    0.0000 C   0  0  1  0  0  0  0  0  0  0  0  0
   -1.2093    2.6116    0.0000 C   0  0  0  0  0  0  0  0  0  0  0  0
    2.2836    1.8719    0.0000 C   0  0  0  0  0  0  0  0  0  0  0  0
    1.6918    3.1648    0.0000 N   0  0  0  0  0  0  0  0  0  0  0  0
   -2.1163    0.6433    0.0000 O   0  0  0  0  0  0  0  0  0  0  0  0
   -2.7853    1.1193    0.0000 C   0  0  0  0  0  0  0  0  0  0  0  0
   -1.9619    2.2771    0.0000 C   0  0  2  0  0  0  0  0  0  0  0  0
    2.4315    3.5121    0.0000 C   0  0  0  0  0  0  0  0  0  0  0  0
    1.0163    3.6472    0.0000 C   0  0  0  0  0  0  0  0  0  0  0  0
   -2.8689    0.3088    0.0000 O   0  0  0  0  0  0  0  0  0  0  0  0
   -3.4607    1.6017    0.0000 C   0  0  0  0  0  0  0  0  0  0  0  0
   -2.6373    2.7596    0.0000 C   0  0  2  0  0  0  0  0  0  0  0  0
   -3.3899    2.4251    0.0000 C   0  0  0  0  0  0  0  0  0  0  0  0
   -4.2133    1.2672    0.0000 C   0  0  0  0  0  0  0  0  0  0  0  0
   -2.5666    3.5829    0.0000 N   0  0  0  0  0  0  0  0  0  0  0  0
   -4.0654    2.9075    0.0000 O   0  0  0  0  0  0  0  0  0  0  0  0
   -4.2969    0.4567    0.0000 O   0  0  0  0  0  0  0  0  0  0  0  0
   -4.8887    1.7497    0.0000 N   0  0  0  0  0  0  0  0  0  0  0  0
   -3.2420    4.0654    0.0000 C   0  0  0  0  0  0  0  0  0  0  0  0
   -1.8269    3.9303    0.0000 C   0  0  0  0  0  0  0  0  0  0  0  0
  1  2  2  0  0  0  0
  2  3  1  0  0  0  0
  2  4  1  0  0  0  0
  3  5  2  0  0  0  0
  3  6  1  0  0  0  0
  4  7  2  0  0  0  0
  4  8  1  0  0  0  0
  5  9  1  0  0  0  0
  5 10  1  0  0  0  0
  6 11  2  0  0  0  0
  6 12  1  0  0  0  0
  7 13  1  0  0  0  0
  7 14  1  0  0  0  0
  8 15  1  1  0  0  0
 10 16  2  0  0  0  0
 11 17  1  0  0  0  0
 14 18  1  6  0  0  0
 14 19  1  0  0  0  0
 14 20  1  0  0  0  0
 17 21  1  0  0  0  0
 17 22  1  0  0  0  0
 19 23  2  0  0  0  0
 19 24  1  0  0  0  0
 20 25  1  0  0  0  0
 24 26  2  0  0  0  0
 24 27  1  0  0  0  0
 25 28  1  6  0  0  0
 26 29  1  0  0  0  0
 27 30  2  0  0  0  0
 27 31  1  0  0  0  0
 28 32  1  0  0  0  0
 28 33  1  0  0  0  0
  8 12  1  0  0  0  0
 11 16  1  0  0  0  0
 20 15  1  1  0  0  0
 25 26  1  0  0  0  0
M  END

>  <name>
Minocycline

>  <ROTATABLE_BONDCOUNT>
3

>  <HBDScore>
0.0

>  <dipole>
14.00

>  <logD>
-2.61

>  <MPOScore>
3.303692857142857

>  <logDScore>
1.0

>  <MW>
457.483

>  <charge_dist(7.4)>
-0.35

>  <CNS>
FALSE

>  <ArRings>
1

>  <HBD>
5

>  <BALABAN_INDEX>
1.70

>  <bpKa>
7.9

>  <TPSAScore>
0.0

>  <MWScore>
0.3036928571428571

>  <bpKaScore>
1.0

>  <logPScore>
1.0

>  <MPO_area>
38.39

>  <TPSA>
164.63

>  <logP>
-2.54

$$$$

  Mrv1722703221715202D          

 15 16  0  0  0  0            999 V2000
    0.0000    0.0000    0.0000 O   0  0  0  0  0  0  0  0  0  0  0  0
    0.8250    0.0066    0.0000 N   0  0  0  0  0  0  0  0  0  0  0  0
    1.2309    0.7333    0.0000 C   0  0  0  0  0  0  0  0  0  0  0  0
    1.2309   -0.7071    0.0000 C   0  0  0  0  0  0  0  0  0  0  0  0
    2.0559    0.7399    0.0000 N   0  0  0  0  0  0  0  0  0  0  0  0
    0.8119    1.4601    0.0000 N   0  0  0  0  0  0  0  0  0  0  0  0
    0.8119   -1.4208    0.0000 N   0  0  0  0  0  0  0  0  0  0  0  0
    2.0559   -0.7006    0.0000 C   0  0  0  0  0  0  0  0  0  0  0  0
    2.4618    0.0262    0.0000 C   0  0  0  0  0  0  0  0  0  0  0  0
    3.2868    0.0327    0.0000 N   0  0  0  0  0  0  0  0  0  0  0  0
    3.6927    0.7595    0.0000 C   0  0  0  0  0  0  0  0  0  0  0  0
    3.6927   -0.6809    0.0000 C   0  0  0  0  0  0  0  0  0  0  0  0
    4.5177    0.7660    0.0000 C   0  0  0  0  0  0  0  0  0  0  0  0
    4.5177   -0.6744    0.0000 C   0  0  0  0  0  0  0  0  0  0  0  0
    4.9237    0.0524    0.0000 C   0  0  0  0  0  0  0  0  0  0  0  0
  1  2  1  0  0  0  0
  2  3  1  0  0  0  0
  2  4  1  0  0  0  0
  3  5  1  0  0  0  0
  3  6  2  0  0  0  0
  4  7  1  0  0  0  0
  4  8  2  0  0  0  0
  5  9  2  0  0  0  0
  9 10  1  0  0  0  0
 10 11  1  0  0  0  0
 10 12  1  0  0  0  0
 11 13  1  0  0  0  0
 12 14  1  0  0  0  0
 13 15  1  0  0  0  0
  8  9  1  0  0  0  0
 14 15  1  0  0  0  0
M  END

>  <name>
Minoxidil

>  <ROTATABLE_BONDCOUNT>
1

>  <HBDScore>
0.16666666666666674

>  <dipole>
8.59

>  <logD>
-2.69

>  <MPOScore>
4.166666666666667

>  <logDScore>
1.0

>  <MW>
209.253

>  <charge_dist(7.4)>
1.00

>  <CNS>
FALSE

>  <ArRings>
1

>  <HBD>
3

>  <BALABAN_INDEX>
1.80

>  <bpKa>
13.09

>  <TPSAScore>
1.0

>  <MWScore>
1.0

>  <bpKaScore>
0.0

>  <logPScore>
1.0

>  <MPO_area>
52.78

>  <TPSA>
88.94

>  <logP>
-0.74

$$$$

  Mrv1722703221715202D          

 28 30  0  0  0  0            999 V2000
    0.0000    0.0000    0.0000 S   0  0  0  0  0  0  0  0  0  0  0  0
   -0.4574   -0.6926    0.0000 C   0  0  0  0  0  0  0  0  0  0  0  0
    0.7971   -0.2091    0.0000 C   0  0  0  0  0  0  0  0  0  0  0  0
    0.0588   -1.3330    0.0000 N   0  0  0  0  0  0  0  0  0  0  0  0
   -1.2938   -0.7253    0.0000 N   0  0  0  0  0  0  0  0  0  0  0  0
    0.8298   -1.0324    0.0000 C   0  0  0  0  0  0  0  0  0  0  0  0
    1.5224   -1.4767    0.0000 C   0  0  0  0  0  0  0  0  0  0  0  0
    2.2543   -1.0912    0.0000 C   0  0  0  0  0  0  0  0  0  0  0  0
    2.2935   -0.2548    0.0000 O   0  0  0  0  0  0  0  0  0  0  0  0
    2.9468   -1.5355    0.0000 N   0  0  0  0  0  0  0  0  0  0  0  0
    3.6787   -1.1500    0.0000 C   0  0  0  0  0  0  0  0  0  0  0  0
    4.3713   -1.5943    0.0000 C   0  0  0  0  0  0  0  0  0  0  0  0
    3.7179   -0.3137    0.0000 C   0  0  0  0  0  0  0  0  0  0  0  0
    5.1031   -1.2088    0.0000 C   0  0  0  0  0  0  0  0  0  0  0  0
    4.4497    0.0719    0.0000 C   0  0  0  0  0  0  0  0  0  0  0  0
    5.1423   -0.3724    0.0000 C   0  0  0  0  0  0  0  0  0  0  0  0
    5.8741    0.0131    0.0000 C   0  0  0  0  0  0  0  0  0  0  0  0
    6.5668   -0.4313    0.0000 C   0  0  0  0  0  0  0  0  0  0  0  0
    7.2986   -0.0457    0.0000 N   0  0  0  0  0  0  0  0  0  0  0  0
    7.9912   -0.4901    0.0000 C   0  0  0  0  0  0  0  0  0  0  0  0
    8.7230   -0.1046    0.0000 C   0  0  2  0  0  0  0  0  0  0  0  0
    8.7622    0.7318    0.0000 O   0  0  0  0  0  0  0  0  0  0  0  0
    9.4156   -0.5488    0.0000 C   0  0  0  0  0  0  0  0  0  0  0  0
    9.3634   -1.3722    0.0000 C   0  0  0  0  0  0  0  0  0  0  0  0
   10.1474   -0.1633    0.0000 C   0  0  0  0  0  0  0  0  0  0  0  0
   10.0560   -1.8165    0.0000 C   0  0  0  0  0  0  0  0  0  0  0  0
   10.8400   -0.6077    0.0000 C   0  0  0  0  0  0  0  0  0  0  0  0
   10.7878   -1.4310    0.0000 C   0  0  0  0  0  0  0  0  0  0  0  0
  1  2  1  0  0  0  0
  1  3  1  0  0  0  0
  2  4  2  0  0  0  0
  2  5  1  0  0  0  0
  3  6  2  0  0  0  0
  6  7  1  0  0  0  0
  7  8  1  0  0  0  0
  8  9  2  0  0  0  0
  8 10  1  0  0  0  0
 10 11  1  0  0  0  0
 11 12  2  0  0  0  0
 11 13  1  0  0  0  0
 12 14  1  0  0  0  0
 13 15  2  0  0  0  0
 14 16  2  0  0  0  0
 16 17  1  0  0  0  0
 17 18  1  0  0  0  0
 18 19  1  0  0  0  0
 19 20  1  0  0  0  0
 20 21  1  0  0  0  0
 21 22  1  6  0  0  0
 21 23  1  0  0  0  0
 23 24  2  0  0  0  0
 23 25  1  0  0  0  0
 24 26  1  0  0  0  0
 25 27  2  0  0  0  0
 26 28  2  0  0  0  0
  4  6  1  0  0  0  0
 15 16  1  0  0  0  0
 27 28  1  0  0  0  0
M  END

>  <name>
Mirabegron

>  <ROTATABLE_BONDCOUNT>
9

>  <HBDScore>
0.0

>  <dipole>
3.61

>  <logD>
0.70

>  <MPOScore>
3.5868809523809526

>  <logDScore>
1.0

>  <MW>
396.51

>  <charge_dist(7.4)>
1.00

>  <CNS>
FALSE

>  <ArRings>
3

>  <HBD>
4

>  <BALABAN_INDEX>
1.13

>  <bpKa>
9.62

>  <TPSAScore>
0.6576666666666668

>  <MWScore>
0.7392142857142858

>  <bpKaScore>
0.1900000000000004

>  <logPScore>
1.0

>  <MPO_area>
39.17

>  <TPSA>
100.27

>  <logP>
2.89

$$$$

  Mrv1722703221715202D          

 18 19  0  0  0  0            999 V2000
    0.0000    0.0000    0.0000 Cl  0  0  0  0  0  0  0  0  0  0  0  0
   -0.7730    0.3157    0.0000 C   0  0  0  0  0  0  0  0  0  0  0  0
   -0.8954    1.1402    0.0000 C   0  0  0  0  0  0  0  0  0  0  0  0
   -1.4301   -0.1868    0.0000 C   0  0  0  0  0  0  0  0  0  0  0  0
   -1.6685    1.4559    0.0000 C   0  0  0  0  0  0  0  0  0  0  0  0
   -0.2512    1.6556    0.0000 C   0  0  2  0  0  0  0  0  0  0  0  0
   -2.2031    0.1288    0.0000 C   0  0  0  0  0  0  0  0  0  0  0  0
   -2.3255    0.9534    0.0000 C   0  0  0  0  0  0  0  0  0  0  0  0
    0.5089    1.3528    0.0000 C   0  0  0  0  0  0  0  0  0  0  0  0
   -0.3736    2.4801    0.0000 C   0  0  0  0  0  0  0  0  0  0  0  0
    0.6184    0.5411    0.0000 C   0  0  0  0  0  0  0  0  0  0  0  0
    1.1531    1.8681    0.0000 C   0  0  0  0  0  0  0  0  0  0  0  0
    0.2706    2.9955    0.0000 Cl  0  0  0  0  0  0  0  0  0  0  0  0
   -1.1466    2.7958    0.0000 Cl  0  0  0  0  0  0  0  0  0  0  0  0
    1.3785    0.2383    0.0000 C   0  0  0  0  0  0  0  0  0  0  0  0
    1.9133    1.5654    0.0000 C   0  0  0  0  0  0  0  0  0  0  0  0
    2.0228    0.7537    0.0000 C   0  0  0  0  0  0  0  0  0  0  0  0
    2.7829    0.4510    0.0000 Cl  0  0  0  0  0  0  0  0  0  0  0  0
  1  2  1  0  0  0  0
  2  3  2  0  0  0  0
  2  4  1  0  0  0  0
  3  5  1  0  0  0  0
  6  3  1  1  0  0  0
  4  7  2  0  0  0  0
  5  8  2  0  0  0  0
  6  9  1  0  0  0  0
  6 10  1  0  0  0  0
  9 11  2  0  0  0  0
  9 12  1  0  0  0  0
 10 13  1  0  0  0  0
 10 14  1  0  0  0  0
 11 15  1  0  0  0  0
 12 16  2  0  0  0  0
 15 17  2  0  0  0  0
 17 18  1  0  0  0  0
  7  8  1  0  0  0  0
 16 17  1  0  0  0  0
M  END

>  <name>
Mitotane

>  <ROTATABLE_BONDCOUNT>
3

>  <HBDScore>
1.0

>  <dipole>
2.38

>  <logD>
6.11

>  <MPOScore>
3.0

>  <logDScore>
0.0

>  <MW>
320.03

>  <charge_dist(7.4)>
0.00

>  <CNS>
FALSE

>  <ArRings>
2

>  <HBD>
0

>  <BALABAN_INDEX>
1.92

>  <bpKa>
0.0

>  <TPSAScore>
0.0

>  <MWScore>
1.0

>  <bpKaScore>
1.0

>  <logPScore>
0.0

>  <MPO_area>
33.33

>  <TPSA>
0.00

>  <logP>
6.11

$$$$

  Mrv1722703221715202D          

 41 45  0  0  0  0            999 V2000
    0.0000    0.0000    0.0000 Cl  0  0  0  0  0  0  0  0  0  0  0  0
   -0.7334    0.3796    0.0000 C   0  0  0  0  0  0  0  0  0  0  0  0
   -1.4281   -0.0579    0.0000 C   0  0  0  0  0  0  0  0  0  0  0  0
   -0.7848    1.2030    0.0000 C   0  0  0  0  0  0  0  0  0  0  0  0
   -2.1615    0.3216    0.0000 C   0  0  0  0  0  0  0  0  0  0  0  0
   -1.5182    1.5826    0.0000 C   0  0  0  0  0  0  0  0  0  0  0  0
   -2.8563   -0.1158    0.0000 N   0  0  0  0  0  0  0  0  0  0  0  0
   -2.2130    1.1451    0.0000 C   0  0  0  0  0  0  0  0  0  0  0  0
   -3.5897    0.2638    0.0000 C   0  0  0  0  0  0  0  0  0  0  0  0
   -2.9464    1.5246    0.0000 C   0  0  0  0  0  0  0  0  0  0  0  0
   -3.6411    1.0872    0.0000 C   0  0  0  0  0  0  0  0  0  0  0  0
   -4.2844   -0.1737    0.0000 C   0  0  0  0  0  0  0  0  0  0  0  0
   -5.0178    0.2058    0.0000 C   0  0  0  0  0  0  0  0  0  0  0  0
   -5.7126   -0.2316    0.0000 C   0  0  0  0  0  0  0  0  0  0  0  0
   -6.4459    0.1480    0.0000 C   0  0  0  0  0  0  0  0  0  0  0  0
   -5.6740   -1.0422    0.0000 C   0  0  0  0  0  0  0  0  0  0  0  0
   -7.1407   -0.2895    0.0000 C   0  0  0  0  0  0  0  0  0  0  0  0
   -6.3688   -1.4796    0.0000 C   0  0  0  0  0  0  0  0  0  0  0  0
   -7.1021   -1.1000    0.0000 C   0  0  0  0  0  0  0  0  0  0  0  0
   -7.8741    0.0900    0.0000 C   0  0  1  0  0  0  0  0  0  0  0  0
   -8.5688   -0.3474    0.0000 S   0  0  0  0  0  0  0  0  0  0  0  0
   -7.9256    0.9135    0.0000 C   0  0  0  0  0  0  0  0  0  0  0  0
   -9.3022    0.0322    0.0000 C   0  0  0  0  0  0  0  0  0  0  0  0
   -8.6589    1.2930    0.0000 C   0  0  0  0  0  0  0  0  0  0  0  0
   -9.9970   -0.4053    0.0000 C   0  0  0  0  0  0  0  0  0  0  0  0
   -8.7104    2.1165    0.0000 C   0  0  0  0  0  0  0  0  0  0  0  0
  -10.8011   -0.5854    0.0000 C   0  0  0  0  0  0  0  0  0  0  0  0
  -10.5631    0.1994    0.0000 C   0  0  0  0  0  0  0  0  0  0  0  0
   -9.6818   -1.1515    0.0000 C   0  0  0  0  0  0  0  0  0  0  0  0
   -9.4437    2.4960    0.0000 C   0  0  0  0  0  0  0  0  0  0  0  0
   -8.0285    2.5668    0.0000 C   0  0  0  0  0  0  0  0  0  0  0  0
  -10.1771   -1.8013    0.0000 C   0  0  0  0  0  0  0  0  0  0  0  0
   -9.4952    3.3194    0.0000 C   0  0  0  0  0  0  0  0  0  0  0  0
  -10.1385    2.0586    0.0000 C   0  0  0  0  0  0  0  0  0  0  0  0
   -8.0799    3.3902    0.0000 C   0  0  0  0  0  0  0  0  0  0  0  0
  -10.9941   -1.6984    0.0000 O   0  0  0  0  0  0  0  0  0  0  0  0
   -9.8619   -2.5475    0.0000 O   0  0  0  0  0  0  0  0  0  0  0  0
   -8.8133    3.7698    0.0000 C   0  0  0  0  0  0  0  0  0  0  0  0
  -10.8333    1.6211    0.0000 O   0  0  0  0  0  0  0  0  0  0  0  0
   -9.7011    1.3767    0.0000 C   0  0  0  0  0  0  0  0  0  0  0  0
  -10.5888    2.7533    0.0000 C   0  0  0  0  0  0  0  0  0  0  0  0
  1  2  1  0  0  0  0
  2  3  2  0  0  0  0
  2  4  1  0  0  0  0
  3  5  1  0  0  0  0
  4  6  2  0  0  0  0
  5  7  2  0  0  0  0
  5  8  1  0  0  0  0
  7  9  1  0  0  0  0
  8 10  2  0  0  0  0
  9 11  2  0  0  0  0
  9 12  1  0  0  0  0
 12 13  2  0  0  0  0
 13 14  1  0  0  0  0
 14 15  2  0  0  0  0
 14 16  1  0  0  0  0
 15 17  1  0  0  0  0
 16 18  2  0  0  0  0
 17 19  2  0  0  0  0
 17 20  1  0  0  0  0
 20 21  1  1  0  0  0
 20 22  1  0  0  0  0
 21 23  1  0  0  0  0
 22 24  1  0  0  0  0
 23 25  1  0  0  0  0
 24 26  1  0  0  0  0
 25 27  1  0  0  0  0
 25 28  1  0  0  0  0
 25 29  1  0  0  0  0
 26 30  2  0  0  0  0
 26 31  1  0  0  0  0
 29 32  1  0  0  0  0
 30 33  1  0  0  0  0
 30 34  1  0  0  0  0
 31 35  2  0  0  0  0
 32 36  2  0  0  0  0
 32 37  1  0  0  0  0
 33 38  2  0  0  0  0
 34 39  1  0  0  0  0
 34 40  1  0  0  0  0
 34 41  1  0  0  0  0
  6  8  1  0  0  0  0
 10 11  1  0  0  0  0
 18 19  1  0  0  0  0
 27 28  1  0  0  0  0
 35 38  1  0  0  0  0
M  END

>  <name>
Montelukast

>  <ROTATABLE_BONDCOUNT>
12

>  <HBDScore>
0.5

>  <dipole>
6.04

>  <logD>
5.80

>  <MPOScore>
2.5

>  <logDScore>
0.0

>  <MW>
586.19

>  <charge_dist(7.4)>
-1.00

>  <CNS>
FALSE

>  <ArRings>
4

>  <HBD>
2

>  <BALABAN_INDEX>
1.08

>  <bpKa>
3.12

>  <TPSAScore>
1.0

>  <MWScore>
0.0

>  <bpKaScore>
1.0

>  <logPScore>
0.0

>  <MPO_area>
25.0

>  <TPSA>
70.42

>  <logP>
8.49

$$$$

  Mrv1722703221715202D          

 29 33  0  0  0  0            999 V2000
    0.0000    0.0000    0.0000 F   0  0  0  0  0  0  0  0  0  0  0  0
   -0.5264   -0.6355    0.0000 C   0  0  0  0  0  0  0  0  0  0  0  0
   -0.2375   -1.3995    0.0000 C   0  0  0  0  0  0  0  0  0  0  0  0
   -1.3482   -0.5008    0.0000 C   0  0  0  0  0  0  0  0  0  0  0  0
    0.5714   -1.5215    0.0000 N   0  0  0  0  0  0  0  0  0  0  0  0
   -0.7640   -2.0351    0.0000 C   0  0  0  0  0  0  0  0  0  0  0  0
   -1.8746   -1.1363    0.0000 C   0  0  0  0  0  0  0  0  0  0  0  0
    1.1491   -0.9309    0.0000 C   0  0  0  0  0  0  0  0  0  0  0  0
    0.9437   -2.2470    0.0000 C   0  0  0  0  0  0  0  0  0  0  0  0
   -0.4751   -2.7990    0.0000 O   0  0  0  0  0  0  0  0  0  0  0  0
   -1.5857   -1.9003    0.0000 C   0  0  0  0  0  0  0  0  0  0  0  0
   -2.6963   -1.0015    0.0000 C   0  0  0  0  0  0  0  0  0  0  0  0
    1.8810   -1.2968    0.0000 C   0  0  1  0  0  0  0  0  0  0  0  0
    1.7526   -2.1121    0.0000 C   0  0  2  0  0  0  0  0  0  0  0  0
   -1.0015   -3.4346    0.0000 C   0  0  0  0  0  0  0  0  0  0  0  0
   -2.1121   -2.5358    0.0000 N   0  0  0  0  0  0  0  0  0  0  0  0
   -2.9980   -0.2247    0.0000 O   0  0  0  0  0  0  0  0  0  0  0  0
   -3.2228   -1.6370    0.0000 C   0  0  0  0  0  0  0  0  0  0  0  0
    2.6450   -0.9951    0.0000 N   0  0  0  0  0  0  0  0  0  0  0  0
    2.3882   -2.6257    0.0000 C   0  0  0  0  0  0  0  0  0  0  0  0
   -2.9338   -2.4010    0.0000 C   0  0  0  0  0  0  0  0  0  0  0  0
   -1.8232   -3.2998    0.0000 C   0  0  0  0  0  0  0  0  0  0  0  0
   -4.0445   -1.5023    0.0000 C   0  0  0  0  0  0  0  0  0  0  0  0
    3.2805   -1.5087    0.0000 C   0  0  0  0  0  0  0  0  0  0  0  0
    3.1521   -2.3240    0.0000 C   0  0  0  0  0  0  0  0  0  0  0  0
   -1.1877   -3.8134    0.0000 C   0  0  0  0  0  0  0  0  0  0  0  0
   -1.9580   -4.1087    0.0000 C   0  0  0  0  0  0  0  0  0  0  0  0
   -4.5709   -2.1378    0.0000 O   0  0  0  0  0  0  0  0  0  0  0  0
   -4.3462   -0.7254    0.0000 O   0  0  0  0  0  0  0  0  0  0  0  0
  1  2  1  0  0  0  0
  2  3  2  0  0  0  0
  2  4  1  0  0  0  0
  3  5  1  0  0  0  0
  3  6  1  0  0  0  0
  4  7  2  0  0  0  0
  5  8  1  0  0  0  0
  5  9  1  0  0  0  0
  6 10  1  0  0  0  0
  6 11  2  0  0  0  0
  7 12  1  0  0  0  0
  8 13  1  0  0  0  0
 14  9  1  6  0  0  0
 10 15  1  0  0  0  0
 11 16  1  0  0  0  0
 12 17  2  0  0  0  0
 12 18  1  0  0  0  0
 13 19  1  6  0  0  0
 14 20  1  0  0  0  0
 16 21  1  0  0  0  0
 16 22  1  0  0  0  0
 18 23  1  0  0  0  0
 19 24  1  0  0  0  0
 20 25  1  0  0  0  0
 22 26  1  0  0  0  0
 22 27  1  0  0  0  0
 23 28  2  0  0  0  0
 23 29  1  0  0  0  0
  7 11  1  0  0  0  0
 13 14  1  0  0  0  0
 18 21  2  0  0  0  0
 24 25  1  0  0  0  0
 26 27  1  0  0  0  0
M  END

>  <name>
Moxifloxacin

>  <ROTATABLE_BONDCOUNT>
4

>  <HBDScore>
0.5

>  <dipole>
17.13

>  <logD>
-0.49

>  <MPOScore>
4.494014285714286

>  <logDScore>
1.0

>  <MW>
401.438

>  <charge_dist(7.4)>
0.03

>  <CNS>
FALSE

>  <ArRings>
2

>  <HBD>
2

>  <BALABAN_INDEX>
1.29

>  <bpKa>
9.42

>  <TPSAScore>
1.0

>  <MWScore>
0.7040142857142858

>  <bpKaScore>
0.29000000000000004

>  <logPScore>
1.0

>  <MPO_area>
58.18

>  <TPSA>
82.11

>  <logP>
-0.50

$$$$

  Mrv1722703221715202D          

 23 24  0  0  0  0            999 V2000
    0.0000    0.0000    0.0000 O   0  0  0  0  0  0  0  0  0  0  0  0
   -0.3518    0.7483    0.0000 C   0  0  0  0  0  0  0  0  0  0  0  0
    0.0384    1.4710    0.0000 O   0  0  0  0  0  0  0  0  0  0  0  0
   -1.1640    0.9146    0.0000 C   0  0  0  0  0  0  0  0  0  0  0  0
   -0.5244    2.0785    0.0000 C   0  0  0  0  0  0  0  0  0  0  0  0
   -1.8227    0.4285    0.0000 C   0  0  0  0  0  0  0  0  0  0  0  0
   -1.2663    1.7332    0.0000 C   0  0  0  0  0  0  0  0  0  0  0  0
   -1.7332   -0.3773    0.0000 O   0  0  0  0  0  0  0  0  0  0  0  0
   -2.5838    0.7546    0.0000 C   0  0  0  0  0  0  0  0  0  0  0  0
   -2.0273    2.0593    0.0000 C   0  0  0  0  0  0  0  0  0  0  0  0
   -2.6861    1.5733    0.0000 C   0  0  0  0  0  0  0  0  0  0  0  0
   -3.2425    0.2686    0.0000 C   0  0  0  0  0  0  0  0  0  0  0  0
   -2.1297    2.8780    0.0000 C   0  0  0  0  0  0  0  0  0  0  0  0
   -3.4472    1.8995    0.0000 O   0  0  0  0  0  0  0  0  0  0  0  0
   -4.0035    0.5948    0.0000 C   0  0  0  0  0  0  0  0  0  0  0  0
   -3.5495    2.7180    0.0000 C   0  0  0  0  0  0  0  0  0  0  0  0
   -4.6623    0.1087    0.0000 C   0  0  0  0  0  0  0  0  0  0  0  0
   -5.4234    0.4349    0.0000 C   0  0  0  0  0  0  0  0  0  0  0  0
   -4.5727   -0.6971    0.0000 C   0  0  0  0  0  0  0  0  0  0  0  0
   -5.5257    1.2535    0.0000 C   0  0  0  0  0  0  0  0  0  0  0  0
   -6.2867    1.5797    0.0000 C   0  0  0  0  0  0  0  0  0  0  0  0
   -6.9455    1.0936    0.0000 O   0  0  0  0  0  0  0  0  0  0  0  0
   -6.3891    2.3983    0.0000 O   0  0  0  0  0  0  0  0  0  0  0  0
  1  2  2  0  0  0  0
  2  3  1  0  0  0  0
  2  4  1  0  0  0  0
  3  5  1  0  0  0  0
  4  6  2  0  0  0  0
  4  7  1  0  0  0  0
  6  8  1  0  0  0  0
  6  9  1  0  0  0  0
  7 10  2  0  0  0  0
  9 11  2  0  0  0  0
  9 12  1  0  0  0  0
 10 13  1  0  0  0  0
 11 14  1  0  0  0  0
 12 15  1  0  0  0  0
 14 16  1  0  0  0  0
 15 17  2  0  0  0  0
 17 18  1  0  0  0  0
 17 19  1  0  0  0  0
 18 20  1  0  0  0  0
 20 21  1  0  0  0  0
 21 22  2  0  0  0  0
 21 23  1  0  0  0  0
  5  7  1  0  0  0  0
 10 11  1  0  0  0  0
M  END

>  <name>
Mycophenolic_acid

>  <ROTATABLE_BONDCOUNT>
6

>  <HBDScore>
0.5

>  <dipole>
10.78

>  <logD>
0.17

>  <MPOScore>
5.133

>  <logDScore>
1.0

>  <MW>
320.341

>  <charge_dist(7.4)>
-1.00

>  <CNS>
FALSE

>  <ArRings>
1

>  <HBD>
2

>  <BALABAN_INDEX>
1.97

>  <bpKa>
-4.07

>  <TPSAScore>
0.8979999999999999

>  <MWScore>
1.0

>  <bpKaScore>
1.0

>  <logPScore>
0.7350000000000001

>  <MPO_area>
73.76

>  <TPSA>
93.06

>  <logP>
3.53

$$$$

  Mrv1722703221715202D          

 17 18  0  0  0  0            999 V2000
    0.0000    0.0000    0.0000 O   0  0  0  0  0  0  0  0  0  0  0  0
    0.1722    0.8165    0.0000 C   0  0  0  0  0  0  0  0  0  0  0  0
    0.9568    1.0716    0.0000 C   0  0  0  0  0  0  0  0  0  0  0  0
   -0.4465    1.3842    0.0000 C   0  0  0  0  0  0  0  0  0  0  0  0
    1.5628    0.5167    0.0000 C   0  0  0  0  0  0  0  0  0  0  0  0
    2.3474    0.7718    0.0000 C   0  0  0  0  0  0  0  0  0  0  0  0
    2.9534    0.2169    0.0000 C   0  0  0  0  0  0  0  0  0  0  0  0
    2.5196    1.5883    0.0000 C   0  0  0  0  0  0  0  0  0  0  0  0
    3.7379    0.4720    0.0000 C   0  0  0  0  0  0  0  0  0  0  0  0
    3.3042    1.8434    0.0000 C   0  0  0  0  0  0  0  0  0  0  0  0
    3.9102    1.2885    0.0000 C   0  0  0  0  0  0  0  0  0  0  0  0
    4.3439   -0.0829    0.0000 C   0  0  0  0  0  0  0  0  0  0  0  0
    4.6948    1.5436    0.0000 C   0  0  0  0  0  0  0  0  0  0  0  0
    5.1285    0.1722    0.0000 C   0  0  0  0  0  0  0  0  0  0  0  0
    5.3007    0.9887    0.0000 C   0  0  0  0  0  0  0  0  0  0  0  0
    6.0853    1.2439    0.0000 O   0  0  0  0  0  0  0  0  0  0  0  0
    6.6913    0.6889    0.0000 C   0  0  0  0  0  0  0  0  0  0  0  0
  1  2  2  0  0  0  0
  2  3  1  0  0  0  0
  2  4  1  0  0  0  0
  3  5  1  0  0  0  0
  5  6  1  0  0  0  0
  6  7  2  0  0  0  0
  6  8  1  0  0  0  0
  7  9  1  0  0  0  0
  8 10  2  0  0  0  0
  9 11  2  0  0  0  0
  9 12  1  0  0  0  0
 11 13  1  0  0  0  0
 12 14  2  0  0  0  0
 13 15  2  0  0  0  0
 15 16  1  0  0  0  0
 16 17  1  0  0  0  0
 10 11  1  0  0  0  0
 14 15  1  0  0  0  0
M  END

>  <name>
Nabumetone

>  <ROTATABLE_BONDCOUNT>
4

>  <HBDScore>
1.0

>  <dipole>
7.90

>  <logD>
3.22

>  <MPOScore>
4.595

>  <logDScore>
0.3899999999999999

>  <MW>
228.291

>  <charge_dist(7.4)>
-0.00

>  <CNS>
FALSE

>  <ArRings>
2

>  <HBD>
0

>  <BALABAN_INDEX>
1.77

>  <bpKa>
-4.83

>  <TPSAScore>
0.31500000000000006

>  <MWScore>
1.0

>  <bpKaScore>
1.0

>  <logPScore>
0.8899999999999999

>  <MPO_area>
61.25

>  <TPSA>
26.30

>  <logP>
3.22

$$$$

  Mrv1722703221715202D          

 22 23  0  0  0  0            999 V2000
    0.0000    0.0000    0.0000 O   0  0  0  0  0  0  0  0  0  0  0  0
    0.6474    0.5114    0.0000 C   0  0  0  0  0  0  0  0  0  0  0  0
   -0.7768    0.3237    0.0000 C   0  0  0  0  0  0  0  0  0  0  0  0
    1.4112    0.2007    0.0000 C   0  0  0  0  0  0  0  0  0  0  0  0
    0.5308    1.3400    0.0000 C   0  0  0  0  0  0  0  0  0  0  0  0
   -1.4371   -0.1748    0.0000 C   0  0  0  0  0  0  0  0  0  0  0  0
    2.0586    0.7121    0.0000 C   0  0  0  0  0  0  0  0  0  0  0  0
    1.5148   -0.6150    0.0000 C   0  0  0  0  0  0  0  0  0  0  0  0
    1.1782    1.8514    0.0000 C   0  0  0  0  0  0  0  0  0  0  0  0
   -1.3335   -0.9904    0.0000 O   0  0  0  0  0  0  0  0  0  0  0  0
   -2.2139    0.1489    0.0000 C   0  0  0  0  0  0  0  0  0  0  0  0
    1.9420    1.5407    0.0000 C   0  0  0  0  0  0  0  0  0  0  0  0
    2.8224    0.4014    0.0000 C   0  0  0  0  0  0  0  0  0  0  0  0
    2.2786   -0.9257    0.0000 C   0  0  1  0  0  0  0  0  0  0  0  0
   -2.8742   -0.3496    0.0000 N   0  0  0  0  0  0  0  0  0  0  0  0
    2.9260   -0.4143    0.0000 C   0  0  2  0  0  0  0  0  0  0  0  0
    2.3822   -1.7413    0.0000 O   0  0  0  0  0  0  0  0  0  0  0  0
   -3.6510   -0.0259    0.0000 C   0  0  0  0  0  0  0  0  0  0  0  0
    3.6898   -0.7250    0.0000 O   0  0  0  0  0  0  0  0  0  0  0  0
   -3.9747   -0.7898    0.0000 C   0  0  0  0  0  0  0  0  0  0  0  0
   -3.3403    0.7509    0.0000 C   0  0  0  0  0  0  0  0  0  0  0  0
   -4.4278    0.2978    0.0000 C   0  0  0  0  0  0  0  0  0  0  0  0
  1  2  1  0  0  0  0
  1  3  1  0  0  0  0
  2  4  2  0  0  0  0
  2  5  1  0  0  0  0
  3  6  1  0  0  0  0
  4  7  1  0  0  0  0
  4  8  1  0  0  0  0
  5  9  2  0  0  0  0
  6 10  1  0  0  0  0
  6 11  1  0  0  0  0
  7 12  2  0  0  0  0
  7 13  1  0  0  0  0
  8 14  1  0  0  0  0
 11 15  1  0  0  0  0
 13 16  1  0  0  0  0
 14 17  1  1  0  0  0
 15 18  1  0  0  0  0
 16 19  1  1  0  0  0
 18 20  1  0  0  0  0
 18 21  1  0  0  0  0
 18 22  1  0  0  0  0
  9 12  1  0  0  0  0
 14 16  1  0  0  0  0
M  END

>  <name>
Nadolol

>  <ROTATABLE_BONDCOUNT>
6

>  <HBDScore>
0.0

>  <dipole>
2.54

>  <logD>
-1.44

>  <MPOScore>
4.12

>  <logDScore>
1.0

>  <MW>
309.406

>  <charge_dist(7.4)>
1.00

>  <CNS>
FALSE

>  <ArRings>
1

>  <HBD>
4

>  <BALABAN_INDEX>
1.63

>  <bpKa>
9.76

>  <TPSAScore>
1.0

>  <MWScore>
1.0

>  <bpKaScore>
0.1200000000000001

>  <logPScore>
1.0

>  <MPO_area>
52.0

>  <TPSA>
81.95

>  <logP>
0.87

$$$$

  Mrv1722703221715202D          

 17 18  0  0  0  0            999 V2000
    0.0000    0.0000    0.0000 O   0  0  0  0  0  0  0  0  0  0  0  0
    0.2570   -0.7839    0.0000 C   0  0  0  0  0  0  0  0  0  0  0  0
   -0.3020   -1.4007    0.0000 C   0  0  0  0  0  0  0  0  0  0  0  0
    1.0666   -0.9381    0.0000 C   0  0  0  0  0  0  0  0  0  0  0  0
   -1.1245   -1.2337    0.0000 C   0  0  0  0  0  0  0  0  0  0  0  0
   -0.0450   -2.1847    0.0000 C   0  0  0  0  0  0  0  0  0  0  0  0
    1.3236   -1.7220    0.0000 C   0  0  0  0  0  0  0  0  0  0  0  0
    1.6128   -0.3084    0.0000 C   0  0  0  0  0  0  0  0  0  0  0  0
   -1.6835   -1.8505    0.0000 O   0  0  0  0  0  0  0  0  0  0  0  0
   -1.3943   -0.4369    0.0000 O   0  0  0  0  0  0  0  0  0  0  0  0
    0.7646   -2.3389    0.0000 N   0  0  0  0  0  0  0  0  0  0  0  0
    2.1333   -1.8762    0.0000 N   0  0  0  0  0  0  0  0  0  0  0  0
    2.4224   -0.4626    0.0000 C   0  0  0  0  0  0  0  0  0  0  0  0
    1.0216   -3.1228    0.0000 C   0  0  0  0  0  0  0  0  0  0  0  0
    2.6795   -1.2465    0.0000 C   0  0  0  0  0  0  0  0  0  0  0  0
    0.4626   -3.7397    0.0000 C   0  0  0  0  0  0  0  0  0  0  0  0
    3.4891   -1.4007    0.0000 C   0  0  0  0  0  0  0  0  0  0  0  0
  1  2  2  0  0  0  0
  2  3  1  0  0  0  0
  2  4  1  0  0  0  0
  3  5  1  0  0  0  0
  3  6  2  0  0  0  0
  4  7  2  0  0  0  0
  4  8  1  0  0  0  0
  5  9  2  0  0  0  0
  5 10  1  0  0  0  0
  6 11  1  0  0  0  0
  7 12  1  0  0  0  0
  8 13  2  0  0  0  0
 11 14  1  0  0  0  0
 12 15  2  0  0  0  0
 14 16  1  0  0  0  0
 15 17  1  0  0  0  0
  7 11  1  0  0  0  0
 13 15  1  0  0  0  0
M  END

>  <name>
Nalidixic_acid

>  <ROTATABLE_BONDCOUNT>
2

>  <HBDScore>
0.8333333333333334

>  <dipole>
9.36

>  <logD>
-0.25

>  <MPOScore>
5.833333333333333

>  <logDScore>
1.0

>  <MW>
232.239

>  <charge_dist(7.4)>
-0.97

>  <CNS>
FALSE

>  <ArRings>
2

>  <HBD>
1

>  <BALABAN_INDEX>
2.15

>  <bpKa>
4.68

>  <TPSAScore>
1.0

>  <MWScore>
1.0

>  <bpKaScore>
1.0

>  <logPScore>
1.0

>  <MPO_area>
94.44

>  <TPSA>
70.50

>  <logP>
1.01

$$$$

  Mrv1722703221715202D          

 17 18  0  0  0  0            999 V2000
    0.0000    0.0000    0.0000 O   0  0  0  0  0  0  0  0  0  0  0  0
   -0.5180    0.6604    0.0000 C   0  0  0  0  0  0  0  0  0  0  0  0
   -1.3467    0.5503    0.0000 O   0  0  0  0  0  0  0  0  0  0  0  0
   -0.2137    1.4373    0.0000 C   0  0  1  0  0  0  0  0  0  0  0  0
    0.6021    1.5603    0.0000 C   0  0  0  0  0  0  0  0  0  0  0  0
   -0.7316    2.0977    0.0000 C   0  0  0  0  0  0  0  0  0  0  0  0
    1.1071    0.9129    0.0000 C   0  0  0  0  0  0  0  0  0  0  0  0
    0.9064    2.3372    0.0000 C   0  0  0  0  0  0  0  0  0  0  0  0
    1.9229    1.0359    0.0000 C   0  0  0  0  0  0  0  0  0  0  0  0
    1.7222    2.4603    0.0000 C   0  0  0  0  0  0  0  0  0  0  0  0
    2.2272    1.8128    0.0000 C   0  0  0  0  0  0  0  0  0  0  0  0
    2.4279    0.3885    0.0000 C   0  0  0  0  0  0  0  0  0  0  0  0
    3.0430    1.9358    0.0000 C   0  0  0  0  0  0  0  0  0  0  0  0
    3.2437    0.5115    0.0000 C   0  0  0  0  0  0  0  0  0  0  0  0
    3.5480    1.2884    0.0000 C   0  0  0  0  0  0  0  0  0  0  0  0
    4.3637    1.4114    0.0000 O   0  0  0  0  0  0  0  0  0  0  0  0
    4.8688    0.7640    0.0000 C   0  0  0  0  0  0  0  0  0  0  0  0
  1  2  2  0  0  0  0
  2  3  1  0  0  0  0
  2  4  1  0  0  0  0
  4  5  1  0  0  0  0
  4  6  1  6  0  0  0
  5  7  2  0  0  0  0
  5  8  1  0  0  0  0
  7  9  1  0  0  0  0
  8 10  2  0  0  0  0
  9 11  2  0  0  0  0
  9 12  1  0  0  0  0
 11 13  1  0  0  0  0
 12 14  2  0  0  0  0
 13 15  2  0  0  0  0
 15 16  1  0  0  0  0
 16 17  1  0  0  0  0
 10 11  1  0  0  0  0
 14 15  1  0  0  0  0
M  END

>  <name>
Naproxen

>  <ROTATABLE_BONDCOUNT>
3

>  <HBDScore>
0.8333333333333334

>  <dipole>
8.96

>  <logD>
-0.05

>  <MPOScore>
5.833333333333333

>  <logDScore>
1.0

>  <MW>
230.263

>  <charge_dist(7.4)>
-1.00

>  <CNS>
FALSE

>  <ArRings>
2

>  <HBD>
1

>  <BALABAN_INDEX>
1.89

>  <bpKa>
-4.83

>  <TPSAScore>
1.0

>  <MWScore>
1.0

>  <bpKaScore>
1.0

>  <logPScore>
1.0

>  <MPO_area>
94.44

>  <TPSA>
46.53

>  <logP>
2.99

$$$$

  Mrv1722703221715202D          

 23 24  0  0  1  0            999 V2000
    0.0000    0.0000    0.0000 O   0  0  0  0  0  0  0  0  0  0  0  0
   -0.0579    0.8230    0.0000 C   0  0  0  0  0  0  0  0  0  0  0  0
    0.6173    1.2795    0.0000 N   0  0  0  0  0  0  0  0  0  0  0  0
   -0.7973    1.1960    0.0000 C   0  0  1  0  0  0  0  0  0  0  0  0
    1.3438    0.9194    0.0000 C   0  0  2  0  0  0  0  0  0  0  0  0
   -0.8552    2.0189    0.0000 C   0  0  0  0  0  0  0  0  0  0  0  0
   -1.4853    0.7523    0.0000 C   0  0  0  0  0  0  0  0  0  0  0  0
    1.3888    0.1093    0.0000 C   0  0  0  0  0  0  0  0  0  0  0  0
    2.0189    1.3760    0.0000 C   0  0  0  0  0  0  0  0  0  0  0  0
   -1.5946    2.3919    0.0000 C   0  0  0  0  0  0  0  0  0  0  0  0
   -2.2247    1.1252    0.0000 C   0  0  0  0  0  0  0  0  0  0  0  0
    2.1154   -0.2508    0.0000 O   0  0  0  0  0  0  0  0  0  0  0  0
    0.7009   -0.3343    0.0000 O   0  0  0  0  0  0  0  0  0  0  0  0
    1.9611    2.1990    0.0000 C   0  0  0  0  0  0  0  0  0  0  0  0
   -2.2826    1.9482    0.0000 C   0  0  1  0  0  0  0  0  0  0  0  0
    2.6362    2.6555    0.0000 C   0  0  0  0  0  0  0  0  0  0  0  0
    1.2216    2.5719    0.0000 C   0  0  0  0  0  0  0  0  0  0  0  0
   -3.0220    2.3212    0.0000 C   0  0  0  0  0  0  0  0  0  0  0  0
    2.5784    3.4785    0.0000 C   0  0  0  0  0  0  0  0  0  0  0  0
    1.1638    3.3949    0.0000 C   0  0  0  0  0  0  0  0  0  0  0  0
   -3.0799    3.1441    0.0000 C   0  0  0  0  0  0  0  0  0  0  0  0
   -3.7100    1.8775    0.0000 C   0  0  0  0  0  0  0  0  0  0  0  0
    1.8389    3.8514    0.0000 C   0  0  0  0  0  0  0  0  0  0  0  0
  1  2  2  0  0  0  0
  2  3  1  0  0  0  0
  4  2  1  6  0  0  0
  5  3  1  1  0  0  0
  4  6  1  0  0  0  0
  4  7  1  0  0  0  0
  5  8  1  0  0  0  0
  5  9  1  0  0  0  0
  6 10  1  0  0  0  0
  7 11  1  0  0  0  0
  8 12  2  0  0  0  0
  8 13  1  0  0  0  0
  9 14  1  0  0  0  0
 10 15  1  0  0  0  0
 14 16  2  0  0  0  0
 14 17  1  0  0  0  0
 15 18  1  1  0  0  0
 16 19  1  0  0  0  0
 17 20  2  0  0  0  0
 18 21  1  0  0  0  0
 18 22  1  0  0  0  0
 19 23  2  0  0  0  0
 11 15  1  0  0  0  0
 20 23  1  0  0  0  0
M  END

>  <name>
Nateglinide

>  <ROTATABLE_BONDCOUNT>
6

>  <HBDScore>
0.5

>  <dipole>
4.49

>  <logD>
0.87

>  <MPOScore>
4.984999999999999

>  <logDScore>
1.0

>  <MW>
317.429

>  <charge_dist(7.4)>
-1.00

>  <CNS>
FALSE

>  <ArRings>
1

>  <HBD>
2

>  <BALABAN_INDEX>
1.79

>  <bpKa>
-1.05

>  <TPSAScore>
1.0

>  <MWScore>
1.0

>  <bpKaScore>
1.0

>  <logPScore>
0.4849999999999999

>  <MPO_area>
70.46

>  <TPSA>
66.40

>  <logP>
4.03

$$$$

  Mrv1722703221715202D          

 40 43  0  0  0  0            999 V2000
    0.0000    0.0000    0.0000 S   0  0  0  0  0  0  0  0  0  0  0  0
   -0.5446    0.6344    0.0000 C   0  0  0  0  0  0  0  0  0  0  0  0
    0.8074    0.1538    0.0000 C   0  0  0  0  0  0  0  0  0  0  0  0
   -0.2755    1.4225    0.0000 C   0  0  0  0  0  0  0  0  0  0  0  0
   -1.3649    0.4934    0.0000 C   0  0  0  0  0  0  0  0  0  0  0  0
    1.3392   -0.4678    0.0000 C   0  0  2  0  0  0  0  0  0  0  0  0
   -0.8202    2.0569    0.0000 C   0  0  0  0  0  0  0  0  0  0  0  0
   -1.9095    1.1278    0.0000 C   0  0  0  0  0  0  0  0  0  0  0  0
    1.0573   -1.2431    0.0000 N   0  0  0  0  0  0  0  0  0  0  0  0
    2.1466   -0.3140    0.0000 C   0  0  2  0  0  0  0  0  0  0  0  0
   -1.6404    1.9159    0.0000 C   0  0  0  0  0  0  0  0  0  0  0  0
    0.2371   -1.3840    0.0000 C   0  0  0  0  0  0  0  0  0  0  0  0
    2.4157    0.4742    0.0000 O   0  0  0  0  0  0  0  0  0  0  0  0
    2.6785   -0.9356    0.0000 C   0  0  0  0  0  0  0  0  0  0  0  0
   -0.3076   -0.7497    0.0000 O   0  0  0  0  0  0  0  0  0  0  0  0
   -0.0448   -2.1594    0.0000 C   0  0  0  0  0  0  0  0  0  0  0  0
    3.4858   -0.7817    0.0000 N   0  0  0  0  0  0  0  0  0  0  0  0
    0.4870   -2.7809    0.0000 C   0  0  0  0  0  0  0  0  0  0  0  0
   -0.8650   -2.3004    0.0000 C   0  0  0  0  0  0  0  0  0  0  0  0
    4.0177   -1.4033    0.0000 C   0  0  2  0  0  0  0  0  0  0  0  0
    3.7549    0.0064    0.0000 C   0  0  0  0  0  0  0  0  0  0  0  0
    0.2051   -3.5563    0.0000 C   0  0  0  0  0  0  0  0  0  0  0  0
    1.2943   -2.6272    0.0000 C   0  0  0  0  0  0  0  0  0  0  0  0
   -1.1470   -3.0757    0.0000 C   0  0  0  0  0  0  0  0  0  0  0  0
    3.7357   -2.1786    0.0000 C   0  0  0  0  0  0  0  0  0  0  0  0
    4.8250   -1.2495    0.0000 C   0  0  0  0  0  0  0  0  0  0  0  0
    4.5623    0.1602    0.0000 C   0  0  2  0  0  0  0  0  0  0  0  0
    0.7369   -4.1779    0.0000 O   0  0  0  0  0  0  0  0  0  0  0  0
   -0.6152   -3.6973    0.0000 C   0  0  0  0  0  0  0  0  0  0  0  0
    4.2676   -2.8002    0.0000 O   0  0  0  0  0  0  0  0  0  0  0  0
    2.9155   -2.3196    0.0000 N   0  0  0  0  0  0  0  0  0  0  0  0
    5.0941   -0.4613    0.0000 C   0  0  1  0  0  0  0  0  0  0  0  0
    4.8314    0.9483    0.0000 C   0  0  0  0  0  0  0  0  0  0  0  0
    2.6336   -3.0949    0.0000 C   0  0  0  0  0  0  0  0  0  0  0  0
    5.9015   -0.3076    0.0000 C   0  0  0  0  0  0  0  0  0  0  0  0
    5.6388    1.1021    0.0000 C   0  0  0  0  0  0  0  0  0  0  0  0
    1.8454   -2.8130    0.0000 C   0  0  0  0  0  0  0  0  0  0  0  0
    3.4089   -3.3641    0.0000 C   0  0  0  0  0  0  0  0  0  0  0  0
    2.3516   -3.8703    0.0000 C   0  0  0  0  0  0  0  0  0  0  0  0
    6.1706    0.4806    0.0000 C   0  0  0  0  0  0  0  0  0  0  0  0
  1  2  1  0  0  0  0
  1  3  1  0  0  0  0
  2  4  2  0  0  0  0
  2  5  1  0  0  0  0
  3  6  1  0  0  0  0
  4  7  1  0  0  0  0
  5  8  2  0  0  0  0
  6  9  1  1  0  0  0
  6 10  1  0  0  0  0
  7 11  2  0  0  0  0
  9 12  1  0  0  0  0
 10 13  1  6  0  0  0
 10 14  1  0  0  0  0
 12 15  2  0  0  0  0
 12 16  1  0  0  0  0
 14 17  1  0  0  0  0
 16 18  2  0  0  0  0
 16 19  1  0  0  0  0
 17 20  1  0  0  0  0
 17 21  1  0  0  0  0
 18 22  1  0  0  0  0
 18 23  1  0  0  0  0
 19 24  2  0  0  0  0
 20 25  1  1  0  0  0
 20 26  1  0  0  0  0
 27 21  1  1  0  0  0
 22 28  1  0  0  0  0
 22 29  2  0  0  0  0
 25 30  2  0  0  0  0
 25 31  1  0  0  0  0
 32 26  1  1  0  0  0
 27 33  1  0  0  0  0
 31 34  1  0  0  0  0
 32 35  1  0  0  0  0
 33 36  1  0  0  0  0
 34 37  1  0  0  0  0
 34 38  1  0  0  0  0
 34 39  1  0  0  0  0
 35 40  1  0  0  0  0
  8 11  1  0  0  0  0
 24 29  1  0  0  0  0
 27 32  1  0  0  0  0
 36 40  1  0  0  0  0
M  END

>  <name>
Nelfinavir

>  <ROTATABLE_BONDCOUNT>
10

>  <HBDScore>
0.0

>  <dipole>
4.41

>  <logD>
4.09

>  <MPOScore>
1.6533333333333333

>  <logDScore>
0.0

>  <MW>
567.79

>  <charge_dist(7.4)>
0.84

>  <CNS>
FALSE

>  <ArRings>
2

>  <HBD>
4

>  <BALABAN_INDEX>
1.36

>  <bpKa>
8.18

>  <TPSAScore>
0.6033333333333332

>  <MWScore>
0.0

>  <bpKaScore>
0.9100000000000001

>  <logPScore>
0.14000000000000012

>  <MPO_area>
10.56

>  <TPSA>
101.90

>  <logP>
4.72

$$$$

  Mrv1722703221715202D          

 16 16  0  0  0  0            999 V2000
    0.0000    0.0000    0.0000 O   0  0  0  0  0  0  0  0  0  0  0  0
   -0.0065   -0.8224    0.0000 C   0  0  0  0  0  0  0  0  0  0  0  0
    0.7049   -1.2337    0.0000 O   0  0  0  0  0  0  0  0  0  0  0  0
   -0.7311   -1.2271    0.0000 N   0  0  0  0  0  0  0  0  0  0  0  0
    1.4164   -0.8159    0.0000 C   0  0  0  0  0  0  0  0  0  0  0  0
   -1.4555   -0.8028    0.0000 C   0  0  0  0  0  0  0  0  0  0  0  0
   -0.7376   -2.0495    0.0000 C   0  0  0  0  0  0  0  0  0  0  0  0
    2.1279   -1.2271    0.0000 C   0  0  0  0  0  0  0  0  0  0  0  0
    1.4099    0.0196    0.0000 C   0  0  0  0  0  0  0  0  0  0  0  0
    2.8393   -0.8094    0.0000 C   0  0  0  0  0  0  0  0  0  0  0  0
    2.1213    0.4373    0.0000 C   0  0  0  0  0  0  0  0  0  0  0  0
    3.5508   -1.2206    0.0000 N   0  3  0  0  0  0  0  0  0  0  0  0
    2.8328    0.0261    0.0000 C   0  0  0  0  0  0  0  0  0  0  0  0
    3.1265   -1.9321    0.0000 C   0  0  0  0  0  0  0  0  0  0  0  0
    3.9620   -0.4960    0.0000 C   0  0  0  0  0  0  0  0  0  0  0  0
    4.2623   -1.6318    0.0000 C   0  0  0  0  0  0  0  0  0  0  0  0
  1  2  2  0  0  0  0
  2  3  1  0  0  0  0
  2  4  1  0  0  0  0
  3  5  1  0  0  0  0
  4  6  1  0  0  0  0
  4  7  1  0  0  0  0
  5  8  2  0  0  0  0
  5  9  1  0  0  0  0
  8 10  1  0  0  0  0
  9 11  2  0  0  0  0
 10 12  1  0  0  0  0
 10 13  2  0  0  0  0
 12 14  1  0  0  0  0
 12 15  1  0  0  0  0
 12 16  1  0  0  0  0
 11 13  1  0  0  0  0
M  CHG  1  12   1
M  END

>  <name>
Neostigmine

>  <ROTATABLE_BONDCOUNT>
3

>  <HBDScore>
1.0

>  <dipole>
11.50

>  <logD>
-2.25

>  <MPOScore>
5.477

>  <logDScore>
1.0

>  <MW>
223.295

>  <charge_dist(7.4)>
0.00

>  <CNS>
FALSE

>  <ArRings>
1

>  <HBD>
0

>  <BALABAN_INDEX>
2.45

>  <bpKa>
0.0

>  <TPSAScore>
0.477

>  <MWScore>
1.0

>  <bpKaScore>
1.0

>  <logPScore>
1.0

>  <MPO_area>
82.57

>  <TPSA>
29.54

>  <logP>
-2.25

$$$$

  Mrv1722703221715202D          

 20 23  0  0  0  0            999 V2000
    0.0000    0.0000    0.0000 O   0  0  0  0  0  0  0  0  0  0  0  0
   -0.2664   -0.7798    0.0000 C   0  0  0  0  0  0  0  0  0  0  0  0
   -1.0983   -0.8773    0.0000 N   0  0  0  0  0  0  0  0  0  0  0  0
    0.3249   -1.3517    0.0000 C   0  0  0  0  0  0  0  0  0  0  0  0
   -1.5337   -1.5792    0.0000 C   0  0  0  0  0  0  0  0  0  0  0  0
    0.2405   -2.1705    0.0000 C   0  0  0  0  0  0  0  0  0  0  0  0
    1.0723   -1.0008    0.0000 C   0  0  0  0  0  0  0  0  0  0  0  0
   -1.2542   -2.3525    0.0000 C   0  0  0  0  0  0  0  0  0  0  0  0
   -2.3590   -1.4297    0.0000 C   0  0  0  0  0  0  0  0  0  0  0  0
    0.9098   -2.6449    0.0000 N   0  0  0  0  0  0  0  0  0  0  0  0
   -0.4614   -2.6124    0.0000 N   0  0  0  0  0  0  0  0  0  0  0  0
    1.7416   -1.4752    0.0000 C   0  0  0  0  0  0  0  0  0  0  0  0
   -1.7936   -2.9828    0.0000 N   0  0  0  0  0  0  0  0  0  0  0  0
   -2.8984   -2.0601    0.0000 C   0  0  0  0  0  0  0  0  0  0  0  0
   -2.6514   -0.6434    0.0000 C   0  0  0  0  0  0  0  0  0  0  0  0
    1.6571   -2.2940    0.0000 C   0  0  0  0  0  0  0  0  0  0  0  0
   -0.3639   -3.4312    0.0000 C   0  0  0  0  0  0  0  0  0  0  0  0
   -2.6189   -2.8334    0.0000 C   0  0  0  0  0  0  0  0  0  0  0  0
    0.1300   -4.0876    0.0000 C   0  0  0  0  0  0  0  0  0  0  0  0
   -0.6889   -4.1916    0.0000 C   0  0  0  0  0  0  0  0  0  0  0  0
  1  2  2  0  0  0  0
  2  3  1  0  0  0  0
  2  4  1  0  0  0  0
  3  5  1  0  0  0  0
  4  6  2  0  0  0  0
  4  7  1  0  0  0  0
  5  8  2  0  0  0  0
  5  9  1  0  0  0  0
  6 10  1  0  0  0  0
  6 11  1  0  0  0  0
  7 12  2  0  0  0  0
  8 13  1  0  0  0  0
  9 14  2  0  0  0  0
  9 15  1  0  0  0  0
 10 16  2  0  0  0  0
 11 17  1  0  0  0  0
 13 18  2  0  0  0  0
 17 19  1  0  0  0  0
 17 20  1  0  0  0  0
  8 11  1  0  0  0  0
 12 16  1  0  0  0  0
 14 18  1  0  0  0  0
 19 20  1  0  0  0  0
M  END

>  <name>
Nevirapine

>  <ROTATABLE_BONDCOUNT>
1

>  <HBDScore>
0.8333333333333334

>  <dipole>
2.70

>  <logD>
2.49

>  <MPOScore>
5.588333333333333

>  <logDScore>
0.7549999999999999

>  <MW>
266.304

>  <charge_dist(7.4)>
0.00

>  <CNS>
FALSE

>  <ArRings>
2

>  <HBD>
1

>  <BALABAN_INDEX>
1.45

>  <bpKa>
3.28

>  <TPSAScore>
1.0

>  <MWScore>
1.0

>  <bpKaScore>
1.0

>  <logPScore>
1.0

>  <MPO_area>
86.96

>  <TPSA>
58.12

>  <logP>
2.49

$$$$

  Mrv1722703221715202D          

  9  9  0  0  0  0            999 V2000
    0.0000    0.0000    0.0000 O   0  0  0  0  0  0  0  0  0  0  0  0
   -0.4189   -0.7025    0.0000 C   0  0  0  0  0  0  0  0  0  0  0  0
   -0.0129   -1.4050    0.0000 O   0  0  0  0  0  0  0  0  0  0  0  0
   -1.2439   -0.6961    0.0000 C   0  0  0  0  0  0  0  0  0  0  0  0
   -1.6564   -1.3986    0.0000 C   0  0  0  0  0  0  0  0  0  0  0  0
   -1.6564    0.0193    0.0000 C   0  0  0  0  0  0  0  0  0  0  0  0
   -2.4814   -1.3922    0.0000 N   0  0  0  0  0  0  0  0  0  0  0  0
   -2.4814    0.0258    0.0000 C   0  0  0  0  0  0  0  0  0  0  0  0
   -2.8939   -0.6767    0.0000 C   0  0  0  0  0  0  0  0  0  0  0  0
  1  2  2  0  0  0  0
  2  3  1  0  0  0  0
  2  4  1  0  0  0  0
  4  5  2  0  0  0  0
  4  6  1  0  0  0  0
  5  7  1  0  0  0  0
  6  8  2  0  0  0  0
  7  9  2  0  0  0  0
  8  9  1  0  0  0  0
M  END

>  <name>
Niacin

>  <ROTATABLE_BONDCOUNT>
1

>  <HBDScore>
0.8333333333333334

>  <dipole>
3.67

>  <logD>
-2.86

>  <MPOScore>
5.833333333333333

>  <logDScore>
1.0

>  <MW>
123.111

>  <charge_dist(7.4)>
-0.99

>  <CNS>
FALSE

>  <ArRings>
1

>  <HBD>
1

>  <BALABAN_INDEX>
1.98

>  <bpKa>
4.19

>  <TPSAScore>
1.0

>  <MWScore>
1.0

>  <bpKaScore>
1.0

>  <logPScore>
1.0

>  <MPO_area>
94.44

>  <TPSA>
50.19

>  <logP>
-0.17

$$$$

  Mrv1722703221715202D          

 21 22  0  0  0  0            999 V2000
    0.0000    0.0000    0.0000 Cl  0  0  0  0  0  0  0  0  0  0  0  0
   -0.5400    0.6289    0.0000 C   0  0  0  0  0  0  0  0  0  0  0  0
   -0.2732    1.4102    0.0000 C   0  0  0  0  0  0  0  0  0  0  0  0
   -1.3530    0.4891    0.0000 C   0  0  0  0  0  0  0  0  0  0  0  0
    0.5273    1.5627    0.0000 N   0  0  0  0  0  0  0  0  0  0  0  0
   -0.8131    2.0391    0.0000 C   0  0  0  0  0  0  0  0  0  0  0  0
   -1.8930    1.1180    0.0000 C   0  0  0  0  0  0  0  0  0  0  0  0
    1.0545    0.9465    0.0000 C   0  0  0  0  0  0  0  0  0  0  0  0
   -1.6262    1.8994    0.0000 C   0  0  0  0  0  0  0  0  0  0  0  0
   -2.7061    0.9782    0.0000 N   0  3  0  0  0  0  0  0  0  0  0  0
    0.7750    0.1779    0.0000 O   0  0  0  0  0  0  0  0  0  0  0  0
    1.8549    1.0990    0.0000 C   0  0  0  0  0  0  0  0  0  0  0  0
   -2.9856    0.2096    0.0000 O   0  0  0  0  0  0  0  0  0  0  0  0
   -3.2461    1.6072    0.0000 O   0  5  0  0  0  0  0  0  0  0  0  0
    2.1217    1.8803    0.0000 C   0  0  0  0  0  0  0  0  0  0  0  0
    2.3822    0.4828    0.0000 C   0  0  0  0  0  0  0  0  0  0  0  0
    1.5818    2.5092    0.0000 O   0  0  0  0  0  0  0  0  0  0  0  0
    2.9221    2.0328    0.0000 C   0  0  0  0  0  0  0  0  0  0  0  0
    3.1826    0.6353    0.0000 C   0  0  0  0  0  0  0  0  0  0  0  0
    3.4494    1.4166    0.0000 C   0  0  0  0  0  0  0  0  0  0  0  0
    3.7098    0.0190    0.0000 Cl  0  0  0  0  0  0  0  0  0  0  0  0
  1  2  1  0  0  0  0
  2  3  2  0  0  0  0
  2  4  1  0  0  0  0
  3  5  1  0  0  0  0
  3  6  1  0  0  0  0
  4  7  2  0  0  0  0
  5  8  1  0  0  0  0
  6  9  2  0  0  0  0
  7 10  1  0  0  0  0
  8 11  2  0  0  0  0
  8 12  1  0  0  0  0
 10 13  2  0  0  0  0
 10 14  1  0  0  0  0
 12 15  2  0  0  0  0
 12 16  1  0  0  0  0
 15 17  1  0  0  0  0
 15 18  1  0  0  0  0
 16 19  2  0  0  0  0
 18 20  2  0  0  0  0
 19 21  1  0  0  0  0
  7  9  1  0  0  0  0
 19 20  1  0  0  0  0
M  CHG  2  10   1  14  -1
M  END

>  <name>
Niclosamide

>  <ROTATABLE_BONDCOUNT>
3

>  <HBDScore>
0.5

>  <dipole>
5.67

>  <logD>
3.29

>  <MPOScore>
4.317666666666667

>  <logDScore>
0.355

>  <MW>
327.12

>  <charge_dist(7.4)>
-0.76

>  <CNS>
FALSE

>  <ArRings>
2

>  <HBD>
2

>  <BALABAN_INDEX>
1.78

>  <bpKa>
-4.43

>  <TPSAScore>
0.9176666666666667

>  <MWScore>
1.0

>  <bpKaScore>
1.0

>  <logPScore>
0.5449999999999999

>  <MPO_area>
53.71

>  <TPSA>
92.47

>  <logP>
3.91

$$$$

  Mrv1722703221715202D          

 39 43  0  0  0  0            999 V2000
    0.0000    0.0000    0.0000 F   0  0  0  0  0  0  0  0  0  0  0  0
    0.0716   -0.8132    0.0000 C   0  0  0  0  0  0  0  0  0  0  0  0
   -0.7546   -0.8847    0.0000 F   0  0  0  0  0  0  0  0  0  0  0  0
    0.8847   -0.7286    0.0000 F   0  0  0  0  0  0  0  0  0  0  0  0
    0.1431   -1.6263    0.0000 C   0  0  0  0  0  0  0  0  0  0  0  0
   -0.5399   -2.0947    0.0000 C   0  0  0  0  0  0  0  0  0  0  0  0
    0.8847   -1.9646    0.0000 C   0  0  0  0  0  0  0  0  0  0  0  0
   -0.4684   -2.9078    0.0000 C   0  0  0  0  0  0  0  0  0  0  0  0
    0.9563   -2.7777    0.0000 C   0  0  0  0  0  0  0  0  0  0  0  0
   -1.1514   -3.3762    0.0000 N   0  0  0  0  0  0  0  0  0  0  0  0
    0.2732   -3.2461    0.0000 C   0  0  0  0  0  0  0  0  0  0  0  0
    1.6978   -3.1160    0.0000 N   0  0  0  0  0  0  0  0  0  0  0  0
   -1.9386   -3.1030    0.0000 C   0  0  0  0  0  0  0  0  0  0  0  0
   -1.1709   -4.1959    0.0000 C   0  0  0  0  0  0  0  0  0  0  0  0
    1.7694   -3.9291    0.0000 C   0  0  0  0  0  0  0  0  0  0  0  0
   -2.4394   -3.7600    0.0000 N   0  0  0  0  0  0  0  0  0  0  0  0
   -1.9646   -4.4365    0.0000 C   0  0  0  0  0  0  0  0  0  0  0  0
    1.0864   -4.3975    0.0000 O   0  0  0  0  0  0  0  0  0  0  0  0
    2.5110   -4.2674    0.0000 C   0  0  0  0  0  0  0  0  0  0  0  0
   -2.2378   -5.2106    0.0000 C   0  0  0  0  0  0  0  0  0  0  0  0
    3.1811   -3.7860    0.0000 C   0  0  0  0  0  0  0  0  0  0  0  0
    2.5826   -5.0806    0.0000 C   0  0  0  0  0  0  0  0  0  0  0  0
    3.9226   -4.1243    0.0000 C   0  0  0  0  0  0  0  0  0  0  0  0
    3.3242   -5.4188    0.0000 C   0  0  0  0  0  0  0  0  0  0  0  0
    4.5926   -3.6429    0.0000 N   0  0  0  0  0  0  0  0  0  0  0  0
    3.9942   -4.9375    0.0000 C   0  0  0  0  0  0  0  0  0  0  0  0
    4.5081   -2.8168    0.0000 C   0  0  0  0  0  0  0  0  0  0  0  0
    4.7358   -5.2757    0.0000 C   0  0  0  0  0  0  0  0  0  0  0  0
    3.7535   -2.4655    0.0000 N   0  0  0  0  0  0  0  0  0  0  0  0
    5.1781   -2.3354    0.0000 N   0  0  0  0  0  0  0  0  0  0  0  0
    3.6689   -1.6393    0.0000 C   0  0  0  0  0  0  0  0  0  0  0  0
    5.0936   -1.5092    0.0000 C   0  0  0  0  0  0  0  0  0  0  0  0
    2.9143   -1.2880    0.0000 C   0  0  0  0  0  0  0  0  0  0  0  0
    4.3390   -1.1579    0.0000 C   0  0  0  0  0  0  0  0  0  0  0  0
    2.2313   -1.7564    0.0000 C   0  0  0  0  0  0  0  0  0  0  0  0
    2.8298   -0.4619    0.0000 C   0  0  0  0  0  0  0  0  0  0  0  0
    1.4767   -1.4051    0.0000 N   0  0  0  0  0  0  0  0  0  0  0  0
    2.0752   -0.1106    0.0000 C   0  0  0  0  0  0  0  0  0  0  0  0
    1.3921   -0.5790    0.0000 C   0  0  0  0  0  0  0  0  0  0  0  0
  1  2  1  0  0  0  0
  2  3  1  0  0  0  0
  2  4  1  0  0  0  0
  2  5  1  0  0  0  0
  5  6  2  0  0  0  0
  5  7  1  0  0  0  0
  6  8  1  0  0  0  0
  7  9  2  0  0  0  0
  8 10  1  0  0  0  0
  8 11  2  0  0  0  0
  9 12  1  0  0  0  0
 10 13  1  0  0  0  0
 10 14  1  0  0  0  0
 12 15  1  0  0  0  0
 13 16  2  0  0  0  0
 14 17  2  0  0  0  0
 15 18  2  0  0  0  0
 15 19  1  0  0  0  0
 17 20  1  0  0  0  0
 19 21  2  0  0  0  0
 19 22  1  0  0  0  0
 21 23  1  0  0  0  0
 22 24  2  0  0  0  0
 23 25  1  0  0  0  0
 23 26  2  0  0  0  0
 25 27  1  0  0  0  0
 26 28  1  0  0  0  0
 27 29  2  0  0  0  0
 27 30  1  0  0  0  0
 29 31  1  0  0  0  0
 30 32  2  0  0  0  0
 31 33  1  0  0  0  0
 31 34  2  0  0  0  0
 33 35  2  0  0  0  0
 33 36  1  0  0  0  0
 35 37  1  0  0  0  0
 36 38  2  0  0  0  0
 37 39  2  0  0  0  0
  9 11  1  0  0  0  0
 16 17  1  0  0  0  0
 24 26  1  0  0  0  0
 32 34  1  0  0  0  0
 38 39  1  0  0  0  0
M  END

>  <name>
Nilotinib

>  <ROTATABLE_BONDCOUNT>
7

>  <HBDScore>
0.5

>  <dipole>
15.67

>  <logD>
5.35

>  <MPOScore>
2.2459999999999996

>  <logDScore>
0.0

>  <MW>
529.527

>  <charge_dist(7.4)>
0.03

>  <CNS>
FALSE

>  <ArRings>
5

>  <HBD>
2

>  <BALABAN_INDEX>
1.12

>  <bpKa>
5.92

>  <TPSAScore>
0.7459999999999998

>  <MWScore>
0.0

>  <bpKaScore>
1.0

>  <logPScore>
0.0

>  <MPO_area>
18.65

>  <TPSA>
97.62

>  <logP>
5.36

$$$$

  Mrv1722703221715202D          

 22 23  0  0  0  0            999 V2000
    0.0000    0.0000    0.0000 F   0  0  0  0  0  0  0  0  0  0  0  0
   -0.4863   -0.6613    0.0000 C   0  0  0  0  0  0  0  0  0  0  0  0
    0.1751   -1.1347    0.0000 F   0  0  0  0  0  0  0  0  0  0  0  0
   -1.1606   -0.1751    0.0000 F   0  0  0  0  0  0  0  0  0  0  0  0
   -0.9726   -1.3227    0.0000 C   0  0  0  0  0  0  0  0  0  0  0  0
   -0.6419   -2.0683    0.0000 C   0  0  0  0  0  0  0  0  0  0  0  0
   -1.7960   -1.2320    0.0000 C   0  0  0  0  0  0  0  0  0  0  0  0
    0.1686   -2.1462    0.0000 N   0  3  0  0  0  0  0  0  0  0  0  0
   -1.1282   -2.7297    0.0000 C   0  0  0  0  0  0  0  0  0  0  0  0
   -2.2823   -1.8933    0.0000 C   0  0  0  0  0  0  0  0  0  0  0  0
    0.6419   -1.4719    0.0000 O   0  0  0  0  0  0  0  0  0  0  0  0
    0.4992   -2.8918    0.0000 O   0  5  0  0  0  0  0  0  0  0  0  0
   -1.9517   -2.6390    0.0000 C   0  0  0  0  0  0  0  0  0  0  0  0
   -3.1058   -1.8025    0.0000 N   0  0  0  0  0  0  0  0  0  0  0  0
   -3.6634   -2.4120    0.0000 C   0  0  0  0  0  0  0  0  0  0  0  0
   -3.5272   -1.0828    0.0000 C   0  0  0  0  0  0  0  0  0  0  0  0
   -3.4948   -3.2095    0.0000 O   0  0  0  0  0  0  0  0  0  0  0  0
   -4.4221   -2.0749    0.0000 N   0  0  0  0  0  0  0  0  0  0  0  0
   -3.2031   -0.3242    0.0000 O   0  0  0  0  0  0  0  0  0  0  0  0
   -4.3377   -1.2514    0.0000 C   0  0  0  0  0  0  0  0  0  0  0  0
   -5.1677   -1.2449    0.0000 C   0  0  0  0  0  0  0  0  0  0  0  0
   -4.4350   -0.4279    0.0000 C   0  0  0  0  0  0  0  0  0  0  0  0
  1  2  1  0  0  0  0
  2  3  1  0  0  0  0
  2  4  1  0  0  0  0
  2  5  1  0  0  0  0
  5  6  2  0  0  0  0
  5  7  1  0  0  0  0
  6  8  1  0  0  0  0
  6  9  1  0  0  0  0
  7 10  2  0  0  0  0
  8 11  2  0  0  0  0
  8 12  1  0  0  0  0
  9 13  2  0  0  0  0
 10 14  1  0  0  0  0
 14 15  1  0  0  0  0
 14 16  1  0  0  0  0
 15 17  2  0  0  0  0
 15 18  1  0  0  0  0
 16 19  2  0  0  0  0
 16 20  1  0  0  0  0
 20 21  1  0  0  0  0
 20 22  1  0  0  0  0
 10 13  1  0  0  0  0
 18 20  1  0  0  0  0
M  CHG  2   8   1  12  -1
M  END

>  <name>
Nilutamide

>  <ROTATABLE_BONDCOUNT>
3

>  <HBDScore>
0.8333333333333334

>  <dipole>
14.10

>  <logD>
2.25

>  <MPOScore>
5.623333333333333

>  <logDScore>
0.875

>  <MW>
317.224

>  <charge_dist(7.4)>
-0.00

>  <CNS>
FALSE

>  <ArRings>
1

>  <HBD>
1

>  <BALABAN_INDEX>
1.99

>  <bpKa>
-4.47

>  <TPSAScore>
0.915

>  <MWScore>
1.0

>  <bpKaScore>
1.0

>  <logPScore>
1.0

>  <MPO_area>
87.97

>  <TPSA>
92.55

>  <logP>
2.25

$$$$

  Mrv1722703221715202D          

 40 44  0  0  0  0            999 V2000
    0.0000    0.0000    0.0000 O   0  0  0  0  0  0  0  0  0  0  0  0
    0.5803    0.5739    0.0000 C   0  0  0  0  0  0  0  0  0  0  0  0
    1.3799    0.4385    0.0000 N   0  0  0  0  0  0  0  0  0  0  0  0
    0.4578    1.3928    0.0000 C   0  0  0  0  0  0  0  0  0  0  0  0
    1.7539    1.1671    0.0000 C   0  0  0  0  0  0  0  0  0  0  0  0
    1.1865    1.7603    0.0000 C   0  0  0  0  0  0  0  0  0  0  0  0
   -0.2708    1.7861    0.0000 C   0  0  0  0  0  0  0  0  0  0  0  0
    2.5406    1.3735    0.0000 C   0  0  0  0  0  0  0  0  0  0  0  0
    1.4057    2.5535    0.0000 C   0  0  0  0  0  0  0  0  0  0  0  0
   -0.9737    1.3541    0.0000 N   0  0  0  0  0  0  0  0  0  0  0  0
   -0.3095    2.6115    0.0000 C   0  0  0  0  0  0  0  0  0  0  0  0
    2.7598    2.1666    0.0000 C   0  0  0  0  0  0  0  0  0  0  0  0
    2.1924    2.7598    0.0000 C   0  0  0  0  0  0  0  0  0  0  0  0
   -1.7023    1.7475    0.0000 C   0  0  0  0  0  0  0  0  0  0  0  0
    0.3805    3.0564    0.0000 C   0  0  0  0  0  0  0  0  0  0  0  0
   -1.0382    2.9984    0.0000 C   0  0  0  0  0  0  0  0  0  0  0  0
    3.5465    2.3729    0.0000 C   0  0  0  0  0  0  0  0  0  0  0  0
   -2.4052    1.3154    0.0000 C   0  0  0  0  0  0  0  0  0  0  0  0
   -1.7410    2.5728    0.0000 C   0  0  0  0  0  0  0  0  0  0  0  0
    0.3418    3.8818    0.0000 C   0  0  0  0  0  0  0  0  0  0  0  0
   -1.0768    3.8238    0.0000 C   0  0  0  0  0  0  0  0  0  0  0  0
    3.7657    3.1661    0.0000 O   0  0  0  0  0  0  0  0  0  0  0  0
    4.1075    1.7926    0.0000 O   0  0  0  0  0  0  0  0  0  0  0  0
   -3.1338    1.7023    0.0000 C   0  0  0  0  0  0  0  0  0  0  0  0
   -2.4696    2.9597    0.0000 C   0  0  0  0  0  0  0  0  0  0  0  0
   -0.3869    4.2687    0.0000 C   0  0  0  0  0  0  0  0  0  0  0  0
    4.8942    1.9989    0.0000 C   0  0  0  0  0  0  0  0  0  0  0  0
   -3.1725    2.5277    0.0000 C   0  0  0  0  0  0  0  0  0  0  0  0
   -3.9011    2.9211    0.0000 N   0  0  0  0  0  0  0  0  0  0  0  0
   -4.6040    2.4890    0.0000 C   0  0  0  0  0  0  0  0  0  0  0  0
   -3.9398    3.7464    0.0000 C   0  0  0  0  0  0  0  0  0  0  0  0
   -4.5782    1.6765    0.0000 O   0  0  0  0  0  0  0  0  0  0  0  0
   -5.3327    2.8823    0.0000 C   0  0  0  0  0  0  0  0  0  0  0  0
   -6.0355    2.4503    0.0000 N   0  0  0  0  0  0  0  0  0  0  0  0
   -6.7642    2.8372    0.0000 C   0  0  0  0  0  0  0  0  0  0  0  0
   -6.0097    1.6378    0.0000 C   0  0  0  0  0  0  0  0  0  0  0  0
   -7.4670    2.4116    0.0000 C   0  0  0  0  0  0  0  0  0  0  0  0
   -6.7126    1.2058    0.0000 C   0  0  0  0  0  0  0  0  0  0  0  0
   -7.4412    1.5991    0.0000 N   0  0  0  0  0  0  0  0  0  0  0  0
   -8.1440    1.1671    0.0000 C   0  0  0  0  0  0  0  0  0  0  0  0
  1  2  2  0  0  0  0
  2  3  1  0  0  0  0
  2  4  1  0  0  0  0
  3  5  1  0  0  0  0
  4  6  1  0  0  0  0
  4  7  2  0  0  0  0
  5  8  2  0  0  0  0
  6  9  2  0  0  0  0
  7 10  1  0  0  0  0
  7 11  1  0  0  0  0
  8 12  1  0  0  0  0
  9 13  1  0  0  0  0
 10 14  1  0  0  0  0
 11 15  2  0  0  0  0
 11 16  1  0  0  0  0
 12 17  1  0  0  0  0
 14 18  2  0  0  0  0
 14 19  1  0  0  0  0
 15 20  1  0  0  0  0
 16 21  2  0  0  0  0
 17 22  2  0  0  0  0
 17 23  1  0  0  0  0
 18 24  1  0  0  0  0
 19 25  2  0  0  0  0
 20 26  2  0  0  0  0
 23 27  1  0  0  0  0
 24 28  2  0  0  0  0
 28 29  1  0  0  0  0
 29 30  1  0  0  0  0
 29 31  1  0  0  0  0
 30 32  2  0  0  0  0
 30 33  1  0  0  0  0
 33 34  1  0  0  0  0
 34 35  1  0  0  0  0
 34 36  1  0  0  0  0
 35 37  1  0  0  0  0
 36 38  1  0  0  0  0
 37 39  1  0  0  0  0
 39 40  1  0  0  0  0
  5  6  1  0  0  0  0
 12 13  2  0  0  0  0
 21 26  1  0  0  0  0
 25 28  1  0  0  0  0
 38 39  1  0  0  0  0
M  END

>  <name>
Nintedanib

>  <ROTATABLE_BONDCOUNT>
8

>  <HBDScore>
0.5

>  <dipole>
8.32

>  <logD>
2.57

>  <MPOScore>
4.074333333333334

>  <logDScore>
0.7150000000000001

>  <MW>
539.636

>  <charge_dist(7.4)>
0.38

>  <CNS>
FALSE

>  <ArRings>
3

>  <HBD>
2

>  <BALABAN_INDEX>
1.11

>  <bpKa>
7.23

>  <TPSAScore>
0.8593333333333334

>  <MWScore>
0.0

>  <bpKaScore>
1.0

>  <logPScore>
1.0

>  <MPO_area>
47.19

>  <TPSA>
94.22

>  <logP>
2.79

$$$$

  Mrv1722703221715202D          

 23 24  0  0  0  0            999 V2000
    0.0000    0.0000    0.0000 F   0  0  0  0  0  0  0  0  0  0  0  0
   -0.7820    0.2649    0.0000 C   0  0  0  0  0  0  0  0  0  0  0  0
   -1.0469   -0.5045    0.0000 F   0  0  0  0  0  0  0  0  0  0  0  0
   -0.5297    1.0469    0.0000 F   0  0  0  0  0  0  0  0  0  0  0  0
   -1.5640    0.5297    0.0000 C   0  0  0  0  0  0  0  0  0  0  0  0
   -1.7343    1.3370    0.0000 C   0  0  0  0  0  0  0  0  0  0  0  0
   -2.1821   -0.0063    0.0000 C   0  0  0  0  0  0  0  0  0  0  0  0
   -2.5163    1.6019    0.0000 C   0  0  0  0  0  0  0  0  0  0  0  0
   -2.9641    0.2586    0.0000 C   0  0  0  0  0  0  0  0  0  0  0  0
   -2.6866    2.4091    0.0000 N   0  3  0  0  0  0  0  0  0  0  0  0
   -3.1344    1.0658    0.0000 C   0  0  0  0  0  0  0  0  0  0  0  0
   -3.4686    2.6740    0.0000 O   0  0  0  0  0  0  0  0  0  0  0  0
   -2.0812    2.9578    0.0000 O   0  5  0  0  0  0  0  0  0  0  0  0
   -3.9164    1.3307    0.0000 C   0  0  0  0  0  0  0  0  0  0  0  0
   -4.0867    2.1379    0.0000 O   0  0  0  0  0  0  0  0  0  0  0  0
   -4.5345    0.7946    0.0000 C   0  0  0  0  0  0  0  0  0  0  0  0
   -4.3768    0.0000    0.0000 C   0  0  0  0  0  0  0  0  0  0  0  0
   -5.3165    1.0595    0.0000 C   0  0  0  0  0  0  0  0  0  0  0  0
   -3.6074   -0.2523    0.0000 O   0  0  0  0  0  0  0  0  0  0  0  0
   -4.9948   -0.5360    0.0000 C   0  0  0  0  0  0  0  0  0  0  0  0
   -5.4867    1.8667    0.0000 O   0  0  0  0  0  0  0  0  0  0  0  0
   -5.9345    0.5235    0.0000 C   0  0  0  0  0  0  0  0  0  0  0  0
   -5.7768   -0.2712    0.0000 C   0  0  0  0  0  0  0  0  0  0  0  0
  1  2  1  0  0  0  0
  2  3  1  0  0  0  0
  2  4  1  0  0  0  0
  2  5  1  0  0  0  0
  5  6  2  0  0  0  0
  5  7  1  0  0  0  0
  6  8  1  0  0  0  0
  7  9  2  0  0  0  0
  8 10  1  0  0  0  0
  8 11  2  0  0  0  0
 10 12  2  0  0  0  0
 10 13  1  0  0  0  0
 11 14  1  0  0  0  0
 14 15  2  0  0  0  0
 14 16  1  0  0  0  0
 16 17  1  0  0  0  0
 16 18  1  0  0  0  0
 17 19  2  0  0  0  0
 17 20  1  0  0  0  0
 18 21  2  0  0  0  0
 18 22  1  0  0  0  0
 20 23  1  0  0  0  0
  9 11  1  0  0  0  0
 22 23  1  0  0  0  0
M  CHG  2  10   1  13  -1
M  END

>  <name>
Nitisinone

>  <ROTATABLE_BONDCOUNT>
4

>  <HBDScore>
1.0

>  <dipole>
10.75

>  <logD>
2.82

>  <MPOScore>
5.380000000000001

>  <logDScore>
0.5900000000000001

>  <MW>
329.231

>  <charge_dist(7.4)>
-0.51

>  <CNS>
FALSE

>  <ArRings>
1

>  <HBD>
0

>  <BALABAN_INDEX>
2.13

>  <bpKa>
-7.32

>  <TPSAScore>
0.8550000000000002

>  <MWScore>
1.0

>  <bpKaScore>
1.0

>  <logPScore>
0.935

>  <MPO_area>
80.48

>  <TPSA>
94.35

>  <logP>
3.13

$$$$

  Mrv1722703221715202D          

 21 21  0  0  0  0            999 V2000
    0.0000    0.0000    0.0000 S   0  0  0  0  0  0  0  0  0  0  0  0
    0.4471   -0.6804    0.0000 C   0  0  0  0  0  0  0  0  0  0  0  0
   -0.8035   -0.2138    0.0000 C   0  0  0  0  0  0  0  0  0  0  0  0
   -0.0713   -1.3154    0.0000 N   0  0  0  0  0  0  0  0  0  0  0  0
    1.2636   -0.7128    0.0000 C   0  0  0  0  0  0  0  0  0  0  0  0
   -0.8489   -1.0303    0.0000 C   0  0  0  0  0  0  0  0  0  0  0  0
    1.6329   -1.4385    0.0000 N   0  0  0  0  0  0  0  0  0  0  0  0
   -1.5422   -1.4774    0.0000 C   0  0  0  0  0  0  0  0  0  0  0  0
    2.4494   -1.4709    0.0000 C   0  0  0  0  0  0  0  0  0  0  0  0
    1.1793   -2.1254    0.0000 C   0  0  0  0  0  0  0  0  0  0  0  0
   -2.2874   -1.1016    0.0000 S   0  0  0  0  0  0  0  0  0  0  0  0
   -2.9807   -1.5487    0.0000 C   0  0  0  0  0  0  0  0  0  0  0  0
   -3.7259   -1.1728    0.0000 C   0  0  0  0  0  0  0  0  0  0  0  0
   -4.4193   -1.6199    0.0000 N   0  0  0  0  0  0  0  0  0  0  0  0
   -5.1644   -1.2441    0.0000 C   0  0  0  0  0  0  0  0  0  0  0  0
   -5.2163   -0.4147    0.0000 N   0  0  0  0  0  0  0  0  0  0  0  0
   -5.8578   -1.6912    0.0000 C   0  0  0  0  0  0  0  0  0  0  0  0
   -5.9615   -0.0389    0.0000 C   0  0  0  0  0  0  0  0  0  0  0  0
   -6.6029   -1.3154    0.0000 N   0  3  0  0  0  0  0  0  0  0  0  0
   -6.6548   -0.4860    0.0000 O   0  0  0  0  0  0  0  0  0  0  0  0
   -7.2963   -1.7625    0.0000 O   0  5  0  0  0  0  0  0  0  0  0  0
  1  2  1  0  0  0  0
  1  3  1  0  0  0  0
  2  4  2  0  0  0  0
  2  5  1  0  0  0  0
  3  6  2  0  0  0  0
  5  7  1  0  0  0  0
  6  8  1  0  0  0  0
  7  9  1  0  0  0  0
  7 10  1  0  0  0  0
  8 11  1  0  0  0  0
 11 12  1  0  0  0  0
 12 13  1  0  0  0  0
 13 14  1  0  0  0  0
 14 15  1  0  0  0  0
 15 16  1  0  0  0  0
 15 17  2  0  0  0  0
 16 18  1  0  0  0  0
 17 19  1  0  0  0  0
 19 20  2  0  0  0  0
 19 21  1  0  0  0  0
  4  6  1  0  0  0  0
M  CHG  2  19   1  21  -1
M  END

>  <name>
Nizatidine

>  <ROTATABLE_BONDCOUNT>
10

>  <HBDScore>
0.5

>  <dipole>
7.14

>  <logD>
0.72

>  <MPOScore>
5.5

>  <logDScore>
1.0

>  <MW>
331.45

>  <charge_dist(7.4)>
0.12

>  <CNS>
FALSE

>  <ArRings>
1

>  <HBD>
2

>  <BALABAN_INDEX>
1.92

>  <bpKa>
6.54

>  <TPSAScore>
1.0

>  <MWScore>
1.0

>  <bpKaScore>
1.0

>  <logPScore>
1.0

>  <MPO_area>
83.33

>  <TPSA>
83.33

>  <logP>
0.77

$$$$

  Mrv1722703221715202D          

 27 30  0  0  0  0            999 V2000
    0.0000    0.0000    0.0000 O   0  0  0  0  0  0  0  0  0  0  0  0
    0.6266    0.5418    0.0000 C   0  0  0  0  0  0  0  0  0  0  0  0
    1.3968    0.2676    0.0000 O   0  0  0  0  0  0  0  0  0  0  0  0
    0.4765    1.3642    0.0000 C   0  0  0  0  0  0  0  0  0  0  0  0
    1.5339   -0.5418    0.0000 C   0  0  2  0  0  0  0  0  0  0  0  0
    0.6984   -0.5940    0.0000 C   0  0  0  0  0  0  0  0  0  0  0  0
    2.3237   -0.3068    0.0000 C   0  0  2  0  0  0  0  0  0  0  0  0
    1.5013   -1.3642    0.0000 C   0  0  0  0  0  0  0  0  0  0  0  0
   -0.1371   -0.6462    0.0000 C   0  0  0  0  0  0  0  0  0  0  0  0
    2.7806   -0.9856    0.0000 C   0  0  1  0  0  0  0  0  0  0  0  0
    2.6827    0.4439    0.0000 C   0  0  0  0  0  0  0  0  0  0  0  0
    1.7819    0.3329    0.0000 C   0  0  0  0  0  0  0  0  0  0  0  0
    2.2715   -1.6383    0.0000 C   0  0  0  0  0  0  0  0  0  0  0  0
    3.6030   -0.9203    0.0000 C   0  0  1  0  0  0  0  0  0  0  0  0
    3.5051    0.5091    0.0000 C   0  0  0  0  0  0  0  0  0  0  0  0
    2.0561    1.1162    0.0000 C   0  0  0  0  0  0  0  0  0  0  0  0
    3.9620   -0.1697    0.0000 C   0  0  2  0  0  0  0  0  0  0  0  0
    4.0599   -1.5991    0.0000 C   0  0  0  0  0  0  0  0  0  0  0  0
    4.7844   -0.1044    0.0000 C   0  0  2  0  0  0  0  0  0  0  0  0
    4.8823   -1.5339    0.0000 C   0  0  0  0  0  0  0  0  0  0  0  0
    5.2413   -0.7833    0.0000 C   0  0  0  0  0  0  0  0  0  0  0  0
    5.1434    0.6462    0.0000 C   0  0  0  0  0  0  0  0  0  0  0  0
    6.0638   -0.7180    0.0000 C   0  0  0  0  0  0  0  0  0  0  0  0
    5.9658    0.7115    0.0000 C   0  0  0  0  0  0  0  0  0  0  0  0
    6.4227    0.0326    0.0000 C   0  0  0  0  0  0  0  0  0  0  0  0
    7.2452    0.0979    0.0000 N   0  0  0  0  0  0  0  0  0  0  0  0
    7.6042    0.8485    0.0000 O   0  0  0  0  0  0  0  0  0  0  0  0
  1  2  2  0  0  0  0
  2  3  1  0  0  0  0
  2  4  1  0  0  0  0
  5  3  1  6  0  0  0
  5  6  1  0  0  0  0
  5  7  1  0  0  0  0
  5  8  1  0  0  0  0
  6  9  3  0  0  0  0
  7 10  1  0  0  0  0
  7 11  1  0  0  0  0
  7 12  1  6  0  0  0
  8 13  1  0  0  0  0
 10 14  1  0  0  0  0
 11 15  1  0  0  0  0
 12 16  1  0  0  0  0
 14 17  1  0  0  0  0
 14 18  1  1  0  0  0
 17 19  1  0  0  0  0
 18 20  1  0  0  0  0
 19 21  1  0  0  0  0
 19 22  1  1  0  0  0
 21 23  2  0  0  0  0
 22 24  1  0  0  0  0
 23 25  1  0  0  0  0
 25 26  2  0  0  0  0
 26 27  1  0  0  0  0
 10 13  1  6  0  0  0
 17 15  1  6  0  0  0
 20 21  1  0  0  0  0
 24 25  1  0  0  0  0
M  END

>  <name>
Norgestimate

>  <ROTATABLE_BONDCOUNT>
3

>  <HBDScore>
0.8333333333333334

>  <dipole>
2.07

>  <logD>
4.11

>  <MPOScore>
4.210440476190476

>  <logDScore>
0.0

>  <MW>
369.505

>  <charge_dist(7.4)>
-0.00

>  <CNS>
FALSE

>  <ArRings>
0

>  <HBD>
1

>  <BALABAN_INDEX>
1.58

>  <bpKa>
3.11

>  <TPSAScore>
1.0

>  <MWScore>
0.9321071428571429

>  <bpKaScore>
1.0

>  <logPScore>
0.44499999999999984

>  <MPO_area>
51.33

>  <TPSA>
58.89

>  <logP>
4.11

$$$$

  Mrv1722703221715202D          

 44 47  0  0  0  0            999 V2000
    0.0000    0.0000    0.0000 O   0  0  0  0  0  0  0  0  0  0  0  0
   -0.6659   -0.4913    0.0000 C   0  0  0  0  0  0  0  0  0  0  0  0
   -1.4352   -0.1616    0.0000 O   0  0  0  0  0  0  0  0  0  0  0  0
   -0.5689   -1.3059    0.0000 C   0  0  0  0  0  0  0  0  0  0  0  0
   -2.1011   -0.6530    0.0000 C   0  0  0  0  0  0  0  0  0  0  0  0
    0.1875   -1.6227    0.0000 N   0  0  0  0  0  0  0  0  0  0  0  0
   -1.2348   -1.7972    0.0000 C   0  0  0  0  0  0  0  0  0  0  0  0
   -2.0041   -1.4675    0.0000 C   0  0  0  0  0  0  0  0  0  0  0  0
   -2.8704   -0.3233    0.0000 C   0  0  0  0  0  0  0  0  0  0  0  0
    0.2844   -2.4373    0.0000 C   0  0  0  0  0  0  0  0  0  0  0  0
   -1.1378   -2.6118    0.0000 O   0  0  0  0  0  0  0  0  0  0  0  0
   -2.6700   -1.9589    0.0000 C   0  0  0  0  0  0  0  0  0  0  0  0
   -3.5363   -0.8146    0.0000 C   0  0  0  0  0  0  0  0  0  0  0  0
   -2.9803    0.5043    0.0000 C   0  0  0  0  0  0  0  0  0  0  0  0
   -0.3814   -2.9286    0.0000 O   0  0  0  0  0  0  0  0  0  0  0  0
    1.0408   -2.7540    0.0000 C   0  0  0  0  0  0  0  0  0  0  0  0
   -3.4393   -1.6292    0.0000 C   0  0  0  0  0  0  0  0  0  0  0  0
   -4.3055   -0.4849    0.0000 O   0  0  0  0  0  0  0  0  0  0  0  0
    1.6938   -2.2498    0.0000 C   0  0  0  0  0  0  0  0  0  0  0  0
    1.1378   -3.5686    0.0000 C   0  0  0  0  0  0  0  0  0  0  0  0
   -4.9715   -0.9762    0.0000 C   0  0  1  0  0  0  0  0  0  0  0  0
    2.4502   -2.5666    0.0000 C   0  0  0  0  0  0  0  0  0  0  0  0
    1.8942   -3.8854    0.0000 C   0  0  0  0  0  0  0  0  0  0  0  0
   -5.7407   -0.6465    0.0000 O   0  0  0  0  0  0  0  0  0  0  0  0
   -4.8745   -1.7908    0.0000 C   0  0  1  0  0  0  0  0  0  0  0  0
    2.5471   -3.3811    0.0000 C   0  0  0  0  0  0  0  0  0  0  0  0
    3.1031   -2.0623    0.0000 C   0  0  0  0  0  0  0  0  0  0  0  0
   -6.4066   -1.1378    0.0000 C   0  0  0  0  0  0  0  0  0  0  0  0
   -4.1181   -2.1075    0.0000 O   0  0  0  0  0  0  0  0  0  0  0  0
   -5.5403   -2.2821    0.0000 C   0  0  2  0  0  0  0  0  0  0  0  0
    3.3035   -3.6979    0.0000 O   0  0  0  0  0  0  0  0  0  0  0  0
    2.9932   -1.2348    0.0000 C   0  0  0  0  0  0  0  0  0  0  0  0
   -6.3097   -1.9524    0.0000 C   0  0  2  0  0  0  0  0  0  0  0  0
   -7.2018   -1.3770    0.0000 C   0  0  0  0  0  0  0  0  0  0  0  0
   -6.7881   -0.3944    0.0000 C   0  0  0  0  0  0  0  0  0  0  0  0
   -5.4434   -3.0967    0.0000 O   0  0  0  0  0  0  0  0  0  0  0  0
    3.6461   -0.7305    0.0000 C   0  0  0  0  0  0  0  0  0  0  0  0
   -6.9755   -2.4437    0.0000 O   0  0  0  0  0  0  0  0  0  0  0  0
   -6.1093   -3.5880    0.0000 C   0  0  0  0  0  0  0  0  0  0  0  0
    3.5363    0.0970    0.0000 C   0  0  0  0  0  0  0  0  0  0  0  0
    4.4025   -1.0473    0.0000 C   0  0  0  0  0  0  0  0  0  0  0  0
   -7.7449   -2.1140    0.0000 C   0  0  0  0  0  0  0  0  0  0  0  0
   -6.8785   -3.2583    0.0000 O   0  0  0  0  0  0  0  0  0  0  0  0
   -6.0123   -4.4025    0.0000 N   0  0  0  0  0  0  0  0  0  0  0  0
  1  2  2  0  0  0  0
  2  3  1  0  0  0  0
  2  4  1  0  0  0  0
  3  5  1  0  0  0  0
  4  6  1  0  0  0  0
  4  7  2  0  0  0  0
  5  8  2  0  0  0  0
  5  9  1  0  0  0  0
  6 10  1  0  0  0  0
  7 11  1  0  0  0  0
  8 12  1  0  0  0  0
  9 13  2  0  0  0  0
  9 14  1  0  0  0  0
 10 15  2  0  0  0  0
 10 16  1  0  0  0  0
 12 17  2  0  0  0  0
 13 18  1  0  0  0  0
 16 19  2  0  0  0  0
 16 20  1  0  0  0  0
 21 18  1  6  0  0  0
 19 22  1  0  0  0  0
 20 23  2  0  0  0  0
 21 24  1  0  0  0  0
 21 25  1  0  0  0  0
 22 26  2  0  0  0  0
 22 27  1  0  0  0  0
 24 28  1  0  0  0  0
 25 29  1  1  0  0  0
 25 30  1  0  0  0  0
 26 31  1  0  0  0  0
 27 32  1  0  0  0  0
 28 33  1  0  0  0  0
 28 34  1  0  0  0  0
 28 35  1  0  0  0  0
 30 36  1  1  0  0  0
 32 37  2  0  0  0  0
 33 38  1  6  0  0  0
 36 39  1  0  0  0  0
 37 40  1  0  0  0  0
 37 41  1  0  0  0  0
 38 42  1  0  0  0  0
 39 43  2  0  0  0  0
 39 44  1  0  0  0  0
  7  8  1  0  0  0  0
 13 17  1  0  0  0  0
 23 26  1  0  0  0  0
 30 33  1  0  0  0  0
M  END

>  <name>
Novobiocin

>  <ROTATABLE_BONDCOUNT>
9

>  <HBDScore>
0.0

>  <dipole>
9.32

>  <logD>
1.36

>  <MPOScore>
2.87

>  <logDScore>
1.0

>  <MW>
612.632

>  <charge_dist(7.4)>
-1.11

>  <CNS>
FALSE

>  <ArRings>
3

>  <HBD>
5

>  <BALABAN_INDEX>
1.31

>  <bpKa>
-3.93

>  <TPSAScore>
0.0

>  <MWScore>
0.0

>  <bpKaScore>
1.0

>  <logPScore>
0.8700000000000001

>  <MPO_area>
31.17

>  <TPSA>
196.10

>  <logP>
3.26

$$$$

  Mrv1722703221715202D          

 32 36  0  0  0  0            999 V2000
    0.0000    0.0000    0.0000 F   0  0  0  0  0  0  0  0  0  0  0  0
   -0.5200    0.6548    0.0000 C   0  0  0  0  0  0  0  0  0  0  0  0
   -0.2247    1.4251    0.0000 C   0  0  0  0  0  0  0  0  0  0  0  0
   -1.3416    0.5392    0.0000 C   0  0  0  0  0  0  0  0  0  0  0  0
    0.5842    1.5535    0.0000 C   0  0  0  0  0  0  0  0  0  0  0  0
   -0.7446    2.0798    0.0000 C   0  0  0  0  0  0  0  0  0  0  0  0
   -1.8616    1.1940    0.0000 C   0  0  0  0  0  0  0  0  0  0  0  0
    1.0913    0.9115    0.0000 O   0  0  0  0  0  0  0  0  0  0  0  0
    0.8794    2.3238    0.0000 N   0  0  0  0  0  0  0  0  0  0  0  0
   -1.5663    1.9643    0.0000 C   0  0  0  0  0  0  0  0  0  0  0  0
    1.6883    2.4522    0.0000 C   0  0  0  0  0  0  0  0  0  0  0  0
    0.3595    2.9785    0.0000 C   0  0  0  0  0  0  0  0  0  0  0  0
   -2.0863    2.6191    0.0000 C   0  0  0  0  0  0  0  0  0  0  0  0
    1.9836    3.2225    0.0000 C   0  0  0  0  0  0  0  0  0  0  0  0
    0.6548    3.7489    0.0000 C   0  0  0  0  0  0  0  0  0  0  0  0
   -1.7910    3.3894    0.0000 C   0  0  0  0  0  0  0  0  0  0  0  0
    1.4636    3.8773    0.0000 N   0  0  0  0  0  0  0  0  0  0  0  0
   -0.9821    3.5177    0.0000 N   0  0  0  0  0  0  0  0  0  0  0  0
   -2.3109    4.0442    0.0000 C   0  0  0  0  0  0  0  0  0  0  0  0
    1.7589    4.6475    0.0000 C   0  0  0  0  0  0  0  0  0  0  0  0
   -0.6869    4.2881    0.0000 N   0  0  0  0  0  0  0  0  0  0  0  0
   -2.0156    4.8144    0.0000 C   0  0  0  0  0  0  0  0  0  0  0  0
   -3.1326    3.9286    0.0000 C   0  0  0  0  0  0  0  0  0  0  0  0
    1.2389    5.3023    0.0000 O   0  0  0  0  0  0  0  0  0  0  0  0
    2.5677    4.7759    0.0000 C   0  0  0  0  0  0  0  0  0  0  0  0
   -1.2069    4.9429    0.0000 C   0  0  0  0  0  0  0  0  0  0  0  0
   -2.5356    5.4692    0.0000 C   0  0  0  0  0  0  0  0  0  0  0  0
   -3.6525    4.5834    0.0000 C   0  0  0  0  0  0  0  0  0  0  0  0
    3.2096    5.2959    0.0000 C   0  0  0  0  0  0  0  0  0  0  0  0
    3.3252    4.4806    0.0000 C   0  0  0  0  0  0  0  0  0  0  0  0
   -0.9115    5.7132    0.0000 O   0  0  0  0  0  0  0  0  0  0  0  0
   -3.3573    5.3537    0.0000 C   0  0  0  0  0  0  0  0  0  0  0  0
  1  2  1  0  0  0  0
  2  3  2  0  0  0  0
  2  4  1  0  0  0  0
  3  5  1  0  0  0  0
  3  6  1  0  0  0  0
  4  7  2  0  0  0  0
  5  8  2  0  0  0  0
  5  9  1  0  0  0  0
  6 10  2  0  0  0  0
  9 11  1  0  0  0  0
  9 12  1  0  0  0  0
 10 13  1  0  0  0  0
 11 14  1  0  0  0  0
 12 15  1  0  0  0  0
 13 16  1  0  0  0  0
 14 17  1  0  0  0  0
 16 18  2  0  0  0  0
 16 19  1  0  0  0  0
 17 20  1  0  0  0  0
 18 21  1  0  0  0  0
 19 22  2  0  0  0  0
 19 23  1  0  0  0  0
 20 24  2  0  0  0  0
 20 25  1  0  0  0  0
 21 26  1  0  0  0  0
 22 27  1  0  0  0  0
 23 28  2  0  0  0  0
 25 29  1  0  0  0  0
 25 30  1  0  0  0  0
 26 31  2  0  0  0  0
 27 32  2  0  0  0  0
  7 10  1  0  0  0  0
 15 17  1  0  0  0  0
 22 26  1  0  0  0  0
 28 32  1  0  0  0  0
 29 30  1  0  0  0  0
M  END

>  <name>
Olaparib

>  <ROTATABLE_BONDCOUNT>
4

>  <HBDScore>
0.8333333333333334

>  <dipole>
4.82

>  <logD>
1.96

>  <MPOScore>
5.301397619047619

>  <logDScore>
1.0

>  <MW>
434.471

>  <charge_dist(7.4)>
-0.00

>  <CNS>
FALSE

>  <ArRings>
3

>  <HBD>
1

>  <BALABAN_INDEX>
1.15

>  <bpKa>
-0.9

>  <TPSAScore>
1.0

>  <MWScore>
0.4680642857142857

>  <bpKaScore>
1.0

>  <logPScore>
1.0

>  <MPO_area>
78.19

>  <TPSA>
82.08

>  <logP>
1.96

$$$$

  Mrv1722703221715202D          

 22 23  0  0  0  0            999 V2000
    0.0000    0.0000    0.0000 O   0  0  0  0  0  0  0  0  0  0  0  0
   -0.7611   -0.3070    0.0000 C   0  0  0  0  0  0  0  0  0  0  0  0
   -0.8762   -1.1128    0.0000 O   0  0  0  0  0  0  0  0  0  0  0  0
   -1.4198    0.1983    0.0000 C   0  0  0  0  0  0  0  0  0  0  0  0
   -1.3175    1.0169    0.0000 C   0  0  0  0  0  0  0  0  0  0  0  0
   -2.1809   -0.1087    0.0000 C   0  0  0  0  0  0  0  0  0  0  0  0
   -0.5692    1.3367    0.0000 O   0  0  0  0  0  0  0  0  0  0  0  0
   -1.9763    1.5222    0.0000 C   0  0  0  0  0  0  0  0  0  0  0  0
   -2.8397    0.3965    0.0000 C   0  0  0  0  0  0  0  0  0  0  0  0
   -2.7373    1.2152    0.0000 C   0  0  0  0  0  0  0  0  0  0  0  0
   -3.6007    0.0895    0.0000 N   0  0  0  0  0  0  0  0  0  0  0  0
   -4.2595    0.5948    0.0000 N   0  0  0  0  0  0  0  0  0  0  0  0
   -5.0206    0.2878    0.0000 C   0  0  0  0  0  0  0  0  0  0  0  0
   -5.6793    0.7931    0.0000 C   0  0  0  0  0  0  0  0  0  0  0  0
   -5.1357   -0.5180    0.0000 C   0  0  0  0  0  0  0  0  0  0  0  0
   -6.4404    0.4860    0.0000 C   0  0  0  0  0  0  0  0  0  0  0  0
   -5.8968   -0.8250    0.0000 C   0  0  0  0  0  0  0  0  0  0  0  0
   -6.5555   -0.3198    0.0000 C   0  0  0  0  0  0  0  0  0  0  0  0
   -7.0991    0.9913    0.0000 C   0  0  0  0  0  0  0  0  0  0  0  0
   -7.3166   -0.6268    0.0000 O   0  0  0  0  0  0  0  0  0  0  0  0
   -7.8602    0.6843    0.0000 O   0  0  0  0  0  0  0  0  0  0  0  0
   -6.9968    1.8100    0.0000 O   0  0  0  0  0  0  0  0  0  0  0  0
  1  2  2  0  0  0  0
  2  3  1  0  0  0  0
  2  4  1  0  0  0  0
  4  5  2  0  0  0  0
  4  6  1  0  0  0  0
  5  7  1  0  0  0  0
  5  8  1  0  0  0  0
  6  9  2  0  0  0  0
  8 10  2  0  0  0  0
  9 11  1  0  0  0  0
 11 12  2  0  0  0  0
 12 13  1  0  0  0  0
 13 14  2  0  0  0  0
 13 15  1  0  0  0  0
 14 16  1  0  0  0  0
 15 17  2  0  0  0  0
 16 18  2  0  0  0  0
 16 19  1  0  0  0  0
 18 20  1  0  0  0  0
 19 21  2  0  0  0  0
 19 22  1  0  0  0  0
  9 10  1  0  0  0  0
 17 18  1  0  0  0  0
M  END

>  <name>
Olsalazine

>  <ROTATABLE_BONDCOUNT>
4

>  <HBDScore>
0.0

>  <dipole>
1.31

>  <logD>
-2.49

>  <MPOScore>
3.305

>  <logDScore>
1.0

>  <MW>
302.242

>  <charge_dist(7.4)>
-2.00

>  <CNS>
FALSE

>  <ArRings>
2

>  <HBD>
4

>  <BALABAN_INDEX>
1.62

>  <bpKa>
-0.02

>  <TPSAScore>
0.0

>  <MWScore>
1.0

>  <bpKaScore>
1.0

>  <logPScore>
0.30500000000000016

>  <MPO_area>
38.42

>  <TPSA>
139.78

>  <logP>
4.39

$$$$

  Mrv1722703221715202D          

 35 35  0  0  0  0            999 V2000
    0.0000    0.0000    0.0000 O   0  0  0  0  0  0  0  0  0  0  0  0
   -0.6300   -0.5326    0.0000 C   0  0  0  0  0  0  0  0  0  0  0  0
   -1.4614   -0.4677    0.0000 O   0  0  0  0  0  0  0  0  0  0  0  0
   -0.6950   -1.3510    0.0000 C   0  0  2  0  0  0  0  0  0  0  0  0
   -1.5263   -1.2860    0.0000 C   0  0  2  0  0  0  0  0  0  0  0  0
   -0.1624   -1.9680    0.0000 C   0  0  0  0  0  0  0  0  0  0  0  0
   -2.1564   -1.8186    0.0000 C   0  0  0  0  0  0  0  0  0  0  0  0
   -0.4417   -2.7409    0.0000 C   0  0  0  0  0  0  0  0  0  0  0  0
   -2.9423   -1.5393    0.0000 C   0  0  1  0  0  0  0  0  0  0  0  0
    0.0909   -3.3579    0.0000 C   0  0  0  0  0  0  0  0  0  0  0  0
   -3.1046   -0.7210    0.0000 O   0  0  0  0  0  0  0  0  0  0  0  0
   -3.5723   -2.0719    0.0000 C   0  0  0  0  0  0  0  0  0  0  0  0
   -0.1884   -4.1309    0.0000 C   0  0  0  0  0  0  0  0  0  0  0  0
   -3.8906   -0.4417    0.0000 C   0  0  0  0  0  0  0  0  0  0  0  0
   -4.3582   -1.7927    0.0000 C   0  0  0  0  0  0  0  0  0  0  0  0
    0.3443   -4.7479    0.0000 C   0  0  0  0  0  0  0  0  0  0  0  0
   -4.5206   -0.9743    0.0000 O   0  0  0  0  0  0  0  0  0  0  0  0
   -4.0529    0.3767    0.0000 C   0  0  1  0  0  0  0  0  0  0  0  0
   -4.9882   -2.3252    0.0000 C   0  0  0  0  0  0  0  0  0  0  0  0
    0.0649   -5.5208    0.0000 C   0  0  0  0  0  0  0  0  0  0  0  0
   -3.4359    0.9223    0.0000 N   0  0  0  0  0  0  0  0  0  0  0  0
   -4.8388    0.6560    0.0000 C   0  0  0  0  0  0  0  0  0  0  0  0
   -5.7741   -2.0460    0.0000 C   0  0  0  0  0  0  0  0  0  0  0  0
   -3.5983    1.7407    0.0000 C   0  0  0  0  0  0  0  0  0  0  0  0
   -5.0012    1.4744    0.0000 C   0  0  0  0  0  0  0  0  0  0  0  0
   -6.4041   -2.5785    0.0000 C   0  0  0  0  0  0  0  0  0  0  0  0
   -2.9812    2.2862    0.0000 O   0  0  0  0  0  0  0  0  0  0  0  0
   -5.7871    1.7537    0.0000 C   0  0  0  0  0  0  0  0  0  0  0  0
   -4.3842    2.0200    0.0000 C   0  0  0  0  0  0  0  0  0  0  0  0
   -7.1900   -2.2993    0.0000 C   0  0  0  0  0  0  0  0  0  0  0  0
   -7.8201   -2.8318    0.0000 C   0  0  0  0  0  0  0  0  0  0  0  0
   -8.6060   -2.5526    0.0000 C   0  0  0  0  0  0  0  0  0  0  0  0
   -9.2360   -3.0852    0.0000 C   0  0  0  0  0  0  0  0  0  0  0  0
  -10.0219   -2.8059    0.0000 C   0  0  0  0  0  0  0  0  0  0  0  0
  -10.6519   -3.3385    0.0000 C   0  0  0  0  0  0  0  0  0  0  0  0
  1  2  2  0  0  0  0
  2  3  1  0  0  0  0
  2  4  1  0  0  0  0
  3  5  1  0  0  0  0
  4  6  1  1  0  0  0
  5  7  1  6  0  0  0
  6  8  1  0  0  0  0
  7  9  1  0  0  0  0
  8 10  1  0  0  0  0
  9 11  1  6  0  0  0
  9 12  1  0  0  0  0
 10 13  1  0  0  0  0
 11 14  1  0  0  0  0
 12 15  1  0  0  0  0
 13 16  1  0  0  0  0
 14 17  2  0  0  0  0
 14 18  1  0  0  0  0
 15 19  1  0  0  0  0
 16 20  1  0  0  0  0
 18 21  1  6  0  0  0
 18 22  1  0  0  0  0
 19 23  1  0  0  0  0
 21 24  1  0  0  0  0
 22 25  1  0  0  0  0
 23 26  1  0  0  0  0
 24 27  2  0  0  0  0
 25 28  1  0  0  0  0
 25 29  1  0  0  0  0
 26 30  1  0  0  0  0
 30 31  1  0  0  0  0
 31 32  1  0  0  0  0
 32 33  1  0  0  0  0
 33 34  1  0  0  0  0
 34 35  1  0  0  0  0
  4  5  1  0  0  0  0
M  END

>  <name>
Orlistat

>  <ROTATABLE_BONDCOUNT>
23

>  <HBDScore>
0.8333333333333334

>  <dipole>
5.96

>  <logD>
8.11

>  <MPOScore>
2.8637261904761906

>  <logDScore>
0.0

>  <MW>
495.745

>  <charge_dist(7.4)>
-0.00

>  <CNS>
FALSE

>  <ArRings>
0

>  <HBD>
1

>  <BALABAN_INDEX>
2.48

>  <bpKa>
-1.44

>  <TPSAScore>
1.0

>  <MWScore>
0.03039285714285711

>  <bpKaScore>
1.0

>  <logPScore>
0.0

>  <MPO_area>
30.98

>  <TPSA>
81.70

>  <logP>
8.11

$$$$

  Mrv1722703221715202D          

 22 22  0  0  0  0            999 V2000
    0.0000    0.0000    0.0000 O   0  0  0  0  0  0  0  0  0  0  0  0
   -0.4929   -0.6615    0.0000 C   0  0  0  0  0  0  0  0  0  0  0  0
   -0.1622   -1.4139    0.0000 O   0  0  0  0  0  0  0  0  0  0  0  0
   -1.3230   -0.5643    0.0000 C   0  0  0  0  0  0  0  0  0  0  0  0
    0.6550   -1.4982    0.0000 C   0  0  0  0  0  0  0  0  0  0  0  0
   -1.8160   -1.2258    0.0000 C   0  0  0  0  0  0  0  0  0  0  0  0
   -1.6668    0.2010    0.0000 C   0  0  0  0  0  0  0  0  0  0  0  0
    0.9858   -2.2505    0.0000 C   0  0  0  0  0  0  0  0  0  0  0  0
   -2.6461   -1.1285    0.0000 C   0  0  1  0  0  0  0  0  0  0  0  0
   -2.4970    0.2984    0.0000 C   0  0  1  0  0  0  0  0  0  0  0  0
   -3.1390   -1.7900    0.0000 O   0  0  0  0  0  0  0  0  0  0  0  0
   -2.9899   -0.3632    0.0000 C   0  0  1  0  0  0  0  0  0  0  0  0
   -2.8407    1.0637    0.0000 N   0  0  0  0  0  0  0  0  0  0  0  0
   -2.8082   -2.5423    0.0000 C   0  0  0  0  0  0  0  0  0  0  0  0
   -3.8200   -0.2659    0.0000 N   0  0  0  0  0  0  0  0  0  0  0  0
   -3.3012   -3.2039    0.0000 C   0  0  0  0  0  0  0  0  0  0  0  0
   -1.9911   -2.6266    0.0000 C   0  0  0  0  0  0  0  0  0  0  0  0
   -4.3129   -0.9274    0.0000 C   0  0  0  0  0  0  0  0  0  0  0  0
   -2.9704   -3.9562    0.0000 C   0  0  0  0  0  0  0  0  0  0  0  0
   -1.6603   -3.3790    0.0000 C   0  0  0  0  0  0  0  0  0  0  0  0
   -3.9821   -1.6798    0.0000 O   0  0  0  0  0  0  0  0  0  0  0  0
   -5.1431   -0.8302    0.0000 C   0  0  0  0  0  0  0  0  0  0  0  0
  1  2  2  0  0  0  0
  2  3  1  0  0  0  0
  2  4  1  0  0  0  0
  3  5  1  0  0  0  0
  4  6  2  0  0  0  0
  4  7  1  0  0  0  0
  5  8  1  0  0  0  0
  6  9  1  0  0  0  0
  7 10  1  0  0  0  0
  9 11  1  1  0  0  0
  9 12  1  0  0  0  0
 10 13  1  1  0  0  0
 11 14  1  0  0  0  0
 12 15  1  6  0  0  0
 14 16  1  0  0  0  0
 14 17  1  0  0  0  0
 15 18  1  0  0  0  0
 16 19  1  0  0  0  0
 17 20  1  0  0  0  0
 18 21  2  0  0  0  0
 18 22  1  0  0  0  0
 10 12  1  0  0  0  0
M  END

>  <name>
Oseltamivir

>  <ROTATABLE_BONDCOUNT>
8

>  <HBDScore>
0.5

>  <dipole>
5.48

>  <logD>
-0.72

>  <MPOScore>
4.823333333333333

>  <logDScore>
1.0

>  <MW>
312.410

>  <charge_dist(7.4)>
0.99

>  <CNS>
FALSE

>  <ArRings>
0

>  <HBD>
2

>  <BALABAN_INDEX>
2.80

>  <bpKa>
9.31

>  <TPSAScore>
0.9783333333333332

>  <MWScore>
1.0

>  <bpKaScore>
0.34499999999999975

>  <logPScore>
1.0

>  <MPO_area>
66.42

>  <TPSA>
90.65

>  <logP>
1.16

$$$$

  Mrv1722703221715202D          

 20 21  0  0  0  0            999 V2000
    0.0000    0.0000    0.0000 O   0  0  0  0  0  0  0  0  0  0  0  0
    0.8107   -0.1158    0.0000 N   0  3  0  0  0  0  0  0  0  0  0  0
    1.1067   -0.8815    0.0000 O   0  5  0  0  0  0  0  0  0  0  0  0
    1.3190    0.5340    0.0000 C   0  0  0  0  0  0  0  0  0  0  0  0
    1.0101    1.3125    0.0000 C   0  0  0  0  0  0  0  0  0  0  0  0
    2.1297    0.4182    0.0000 C   0  0  0  0  0  0  0  0  0  0  0  0
    1.5184    1.9624    0.0000 C   0  0  0  0  0  0  0  0  0  0  0  0
    0.1866    1.4412    0.0000 C   0  0  0  0  0  0  0  0  0  0  0  0
    2.6379    1.0681    0.0000 C   0  0  0  0  0  0  0  0  0  0  0  0
    2.3291    1.8466    0.0000 C   0  0  0  0  0  0  0  0  0  0  0  0
   -0.1222    2.2197    0.0000 O   0  0  0  0  0  0  0  0  0  0  0  0
    3.4487    0.9523    0.0000 N   0  0  0  0  0  0  0  0  0  0  0  0
    2.8374    2.4964    0.0000 C   0  0  0  0  0  0  0  0  0  0  0  0
    3.9569    1.6021    0.0000 C   0  0  2  0  0  0  0  0  0  0  0  0
    3.6481    2.3806    0.0000 C   0  0  0  0  0  0  0  0  0  0  0  0
    4.7676    1.4863    0.0000 C   0  0  0  0  0  0  0  0  0  0  0  0
    5.0636    0.7206    0.0000 N   0  0  0  0  0  0  0  0  0  0  0  0
    5.8743    0.6048    0.0000 C   0  0  0  0  0  0  0  0  0  0  0  0
    6.1703   -0.1609    0.0000 C   0  0  0  0  0  0  0  0  0  0  0  0
    6.3826    1.2547    0.0000 C   0  0  0  0  0  0  0  0  0  0  0  0
  1  2  2  0  0  0  0
  2  3  1  0  0  0  0
  2  4  1  0  0  0  0
  4  5  2  0  0  0  0
  4  6  1  0  0  0  0
  5  7  1  0  0  0  0
  5  8  1  0  0  0  0
  6  9  2  0  0  0  0
  7 10  2  0  0  0  0
  8 11  1  0  0  0  0
  9 12  1  0  0  0  0
 10 13  1  0  0  0  0
 12 14  1  0  0  0  0
 13 15  1  0  0  0  0
 14 16  1  6  0  0  0
 16 17  1  0  0  0  0
 17 18  1  0  0  0  0
 18 19  1  0  0  0  0
 18 20  1  0  0  0  0
  9 10  1  0  0  0  0
 14 15  1  0  0  0  0
M  CHG  2   2   1   3  -1
M  END

>  <name>
Oxamniquine

>  <ROTATABLE_BONDCOUNT>
5

>  <HBDScore>
0.16666666666666674

>  <dipole>
15.20

>  <logD>
-0.85

>  <MPOScore>
4.221666666666667

>  <logDScore>
1.0

>  <MW>
279.340

>  <charge_dist(7.4)>
1.00

>  <CNS>
FALSE

>  <ArRings>
1

>  <HBD>
3

>  <BALABAN_INDEX>
1.90

>  <bpKa>
9.89

>  <TPSAScore>
1.0

>  <MWScore>
1.0

>  <bpKaScore>
0.054999999999999716

>  <logPScore>
1.0

>  <MPO_area>
53.85

>  <TPSA>
87.43

>  <logP>
1.57

$$$$

  Mrv1722703221715202D          

 22 25  0  0  0  0            999 V2000
    0.0000    0.0000    0.0000 O   0  0  0  0  0  0  0  0  0  0  0  0
    0.8248    0.0196    0.0000 C   0  0  0  0  0  0  0  0  0  0  0  0
    1.2240    0.7527    0.0000 O   0  0  0  0  0  0  0  0  0  0  0  0
    1.2437   -0.6873    0.0000 C   0  0  0  0  0  0  0  0  0  0  0  0
    2.0488    0.7724    0.0000 C   0  0  0  0  0  0  0  0  0  0  0  0
    2.0684   -0.6676    0.0000 C   0  0  1  0  0  0  0  0  0  0  0  0
    2.4677    0.0655    0.0000 C   0  0  1  0  0  0  0  0  0  0  0  0
    2.4873   -1.3746    0.0000 C   0  0  0  0  0  0  0  0  0  0  0  0
    3.2924    0.0851    0.0000 C   0  0  2  0  0  0  0  0  0  0  0  0
    2.8670    0.7986    0.0000 C   0  0  0  0  0  0  0  0  0  0  0  0
    3.3121   -1.3549    0.0000 C   0  0  0  0  0  0  0  0  0  0  0  0
    3.7114   -0.6218    0.0000 C   0  0  1  0  0  0  0  0  0  0  0  0
    3.6917    0.8182    0.0000 C   0  0  0  0  0  0  0  0  0  0  0  0
    4.5361   -0.6022    0.0000 C   0  0  1  0  0  0  0  0  0  0  0  0
    4.5165    0.8378    0.0000 C   0  0  0  0  0  0  0  0  0  0  0  0
    4.9354    0.1309    0.0000 C   0  0  2  0  0  0  0  0  0  0  0  0
    5.0990   -1.2044    0.0000 C   0  0  0  0  0  0  0  0  0  0  0  0
    5.7471   -0.0196    0.0000 C   0  0  2  0  0  0  0  0  0  0  0  0
    5.3216    0.8706    0.0000 C   0  0  0  0  0  0  0  0  0  0  0  0
    5.8453   -0.8444    0.0000 C   0  0  0  0  0  0  0  0  0  0  0  0
    5.9107    0.7986    0.0000 O   0  0  0  0  0  0  0  0  0  0  0  0
    6.5718    0.0000    0.0000 C   0  0  0  0  0  0  0  0  0  0  0  0
  1  2  2  0  0  0  0
  2  3  1  0  0  0  0
  2  4  1  0  0  0  0
  3  5  1  0  0  0  0
  6  4  1  1  0  0  0
  5  7  1  0  0  0  0
  6  8  1  0  0  0  0
  7  9  1  0  0  0  0
  7 10  1  1  0  0  0
  8 11  1  0  0  0  0
  9 12  1  0  0  0  0
  9 13  1  1  0  0  0
 12 14  1  0  0  0  0
 13 15  1  0  0  0  0
 14 16  1  0  0  0  0
 14 17  1  1  0  0  0
 16 18  1  0  0  0  0
 16 19  1  1  0  0  0
 17 20  1  0  0  0  0
 18 21  1  1  0  0  0
 18 22  1  0  0  0  0
  6  7  1  0  0  0  0
 12 11  1  6  0  0  0
 15 16  1  0  0  0  0
 18 20  1  0  0  0  0
M  END

>  <name>
Oxandrolone

>  <ROTATABLE_BONDCOUNT>
0

>  <HBDScore>
0.8333333333333334

>  <dipole>
2.82

>  <logD>
2.95

>  <MPOScore>
5.358333333333333

>  <logDScore>
0.5249999999999999

>  <MW>
306.446

>  <charge_dist(7.4)>
0.00

>  <CNS>
FALSE

>  <ArRings>
0

>  <HBD>
1

>  <BALABAN_INDEX>
1.64

>  <bpKa>
-0.53

>  <TPSAScore>
1.0

>  <MWScore>
1.0

>  <bpKaScore>
1.0

>  <logPScore>
1.0

>  <MPO_area>
79.93

>  <TPSA>
46.53

>  <logP>
2.95

$$$$

  Mrv1722703221715202D          

 22 24  0  0  0  0            999 V2000
    0.0000    0.0000    0.0000 O   0  0  0  0  0  0  0  0  0  0  0  0
    0.2674    0.7892    0.0000 C   0  0  0  0  0  0  0  0  0  0  0  0
   -0.2805    1.4283    0.0000 O   0  0  0  0  0  0  0  0  0  0  0  0
    1.0762    0.9522    0.0000 C   0  0  0  0  0  0  0  0  0  0  0  0
    1.6109    0.3261    0.0000 C   0  0  0  0  0  0  0  0  0  0  0  0
    2.4197    0.4891    0.0000 C   0  0  0  0  0  0  0  0  0  0  0  0
    2.7654    1.2457    0.0000 O   0  0  0  0  0  0  0  0  0  0  0  0
    3.0197   -0.0718    0.0000 N   0  0  0  0  0  0  0  0  0  0  0  0
    3.5806    1.1479    0.0000 C   0  0  0  0  0  0  0  0  0  0  0  0
    3.7437    0.3326    0.0000 C   0  0  0  0  0  0  0  0  0  0  0  0
    4.1415    1.7609    0.0000 C   0  0  0  0  0  0  0  0  0  0  0  0
    4.4872   -0.0130    0.0000 C   0  0  0  0  0  0  0  0  0  0  0  0
    4.9438    1.5784    0.0000 C   0  0  0  0  0  0  0  0  0  0  0  0
    3.8937    2.5632    0.0000 C   0  0  0  0  0  0  0  0  0  0  0  0
    4.5524   -0.8348    0.0000 C   0  0  0  0  0  0  0  0  0  0  0  0
    5.1655    0.4696    0.0000 C   0  0  0  0  0  0  0  0  0  0  0  0
    5.5047    2.1915    0.0000 C   0  0  0  0  0  0  0  0  0  0  0  0
    4.4546    3.1763    0.0000 C   0  0  0  0  0  0  0  0  0  0  0  0
    5.2960   -1.1805    0.0000 C   0  0  0  0  0  0  0  0  0  0  0  0
    5.9091    0.1239    0.0000 C   0  0  0  0  0  0  0  0  0  0  0  0
    5.2568    2.9937    0.0000 C   0  0  0  0  0  0  0  0  0  0  0  0
    5.9743   -0.6979    0.0000 C   0  0  0  0  0  0  0  0  0  0  0  0
  1  2  2  0  0  0  0
  2  3  1  0  0  0  0
  2  4  1  0  0  0  0
  4  5  1  0  0  0  0
  5  6  1  0  0  0  0
  6  7  1  0  0  0  0
  6  8  2  0  0  0  0
  7  9  1  0  0  0  0
  8 10  1  0  0  0  0
  9 11  1  0  0  0  0
 10 12  1  0  0  0  0
 11 13  2  0  0  0  0
 11 14  1  0  0  0  0
 12 15  2  0  0  0  0
 12 16  1  0  0  0  0
 13 17  1  0  0  0  0
 14 18  2  0  0  0  0
 15 19  1  0  0  0  0
 16 20  2  0  0  0  0
 17 21  2  0  0  0  0
 19 22  2  0  0  0  0
  9 10  2  0  0  0  0
 18 21  1  0  0  0  0
 20 22  1  0  0  0  0
M  END

>  <name>
Oxaprozin

>  <ROTATABLE_BONDCOUNT>
5

>  <HBDScore>
0.8333333333333334

>  <dipole>
4.04

>  <logD>
1.05

>  <MPOScore>
5.6033333333333335

>  <logDScore>
1.0

>  <MW>
293.322

>  <charge_dist(7.4)>
-1.00

>  <CNS>
FALSE

>  <ArRings>
3

>  <HBD>
1

>  <BALABAN_INDEX>
1.62

>  <bpKa>
-0.59

>  <TPSAScore>
1.0

>  <MWScore>
1.0

>  <bpKaScore>
1.0

>  <logPScore>
0.77

>  <MPO_area>
87.42

>  <TPSA>
63.33

>  <logP>
3.46

$$$$

  Mrv1722703221715202D          

 24 26  0  0  0  0            999 V2000
    0.0000    0.0000    0.0000 O   0  0  0  0  0  0  0  0  0  0  0  0
   -0.0712    0.8288    0.0000 C   0  0  0  0  0  0  0  0  0  0  0  0
    0.5504    1.3663    0.0000 N   0  0  0  0  0  0  0  0  0  0  0  0
   -0.7770    1.2692    0.0000 C   0  0  2  0  0  0  0  0  0  0  0  0
    0.2331    2.1369    0.0000 N   0  0  0  0  0  0  0  0  0  0  0  0
    1.3404    1.1785    0.0000 C   0  0  0  0  0  0  0  0  0  0  0  0
   -0.5892    2.0721    0.0000 C   0  0  0  0  0  0  0  0  0  0  0  0
   -1.5476    0.9648    0.0000 C   0  0  0  0  0  0  0  0  0  0  0  0
    0.6605    2.8427    0.0000 C   0  0  0  0  0  0  0  0  0  0  0  0
    1.5670    0.3950    0.0000 C   0  0  0  0  0  0  0  0  0  0  0  0
    1.9038    1.7807    0.0000 C   0  0  0  0  0  0  0  0  0  0  0  0
   -1.1267    2.7067    0.0000 O   0  0  0  0  0  0  0  0  0  0  0  0
   -2.2081    1.4764    0.0000 C   0  0  0  0  0  0  0  0  0  0  0  0
    1.4764    2.8233    0.0000 C   0  0  0  0  0  0  0  0  0  0  0  0
    0.2655    3.5744    0.0000 C   0  0  0  0  0  0  0  0  0  0  0  0
    2.3570    0.2072    0.0000 C   0  0  0  0  0  0  0  0  0  0  0  0
    2.6938    1.5929    0.0000 C   0  0  0  0  0  0  0  0  0  0  0  0
   -2.9786    1.1721    0.0000 C   0  0  0  0  0  0  0  0  0  0  0  0
    1.9038    3.5291    0.0000 C   0  0  0  0  0  0  0  0  0  0  0  0
    0.6929    4.2802    0.0000 C   0  0  0  0  0  0  0  0  0  0  0  0
    2.9204    0.8094    0.0000 C   0  0  0  0  0  0  0  0  0  0  0  0
   -3.6391    1.6836    0.0000 C   0  0  0  0  0  0  0  0  0  0  0  0
    1.5087    4.2608    0.0000 C   0  0  0  0  0  0  0  0  0  0  0  0
    3.7104    0.6217    0.0000 O   0  0  0  0  0  0  0  0  0  0  0  0
  1  2  2  0  0  0  0
  2  3  1  0  0  0  0
  2  4  1  0  0  0  0
  3  5  1  0  0  0  0
  3  6  1  0  0  0  0
  4  7  1  0  0  0  0
  4  8  1  1  0  0  0
  5  9  1  0  0  0  0
  6 10  2  0  0  0  0
  6 11  1  0  0  0  0
  7 12  2  0  0  0  0
  8 13  1  0  0  0  0
  9 14  2  0  0  0  0
  9 15  1  0  0  0  0
 10 16  1  0  0  0  0
 11 17  2  0  0  0  0
 13 18  1  0  0  0  0
 14 19  1  0  0  0  0
 15 20  2  0  0  0  0
 16 21  2  0  0  0  0
 18 22  1  0  0  0  0
 19 23  2  0  0  0  0
 21 24  1  0  0  0  0
  5  7  1  0  0  0  0
 17 21  1  0  0  0  0
 20 23  1  0  0  0  0
M  END

>  <name>
Oxyphenbutazone

>  <ROTATABLE_BONDCOUNT>
5

>  <HBDScore>
0.8333333333333334

>  <dipole>
4.00

>  <logD>
1.83

>  <MPOScore>
5.418333333333333

>  <logDScore>
1.0

>  <MW>
324.380

>  <charge_dist(7.4)>
-1.01

>  <CNS>
FALSE

>  <ArRings>
2

>  <HBD>
1

>  <BALABAN_INDEX>
1.63

>  <bpKa>
-5.97

>  <TPSAScore>
1.0

>  <MWScore>
1.0

>  <bpKaScore>
1.0

>  <logPScore>
0.585

>  <MPO_area>
81.76

>  <TPSA>
60.85

>  <logP>
3.83

$$$$

  Mrv1722703221715202D          

 25 26  0  0  0  0            999 V2000
    0.0000    0.0000    0.0000 O   0  0  0  0  0  0  0  0  0  0  0  0
   -0.0194   -0.8168    0.0000 C   0  0  0  0  0  0  0  0  0  0  0  0
    0.6807   -1.2317    0.0000 O   0  0  0  0  0  0  0  0  0  0  0  0
   -0.7455   -1.2122    0.0000 C   0  0  2  0  0  0  0  0  0  0  0  0
    1.3937   -0.8233    0.0000 C   0  0  0  0  0  0  0  0  0  0  0  0
   -1.4715   -1.6077    0.0000 O   0  0  0  0  0  0  0  0  0  0  0  0
   -1.1539   -0.4862    0.0000 C   0  0  0  0  0  0  0  0  0  0  0  0
   -0.3501   -1.9253    0.0000 C   0  0  0  0  0  0  0  0  0  0  0  0
    2.0939   -1.2381    0.0000 C   0  0  0  0  0  0  0  0  0  0  0  0
   -0.7390    0.2269    0.0000 C   0  0  0  0  0  0  0  0  0  0  0  0
   -1.9837   -0.4667    0.0000 C   0  0  0  0  0  0  0  0  0  0  0  0
   -0.7779   -2.6254    0.0000 C   0  0  0  0  0  0  0  0  0  0  0  0
    0.4667   -1.9318    0.0000 C   0  0  0  0  0  0  0  0  0  0  0  0
    2.8069   -0.8297    0.0000 N   0  3  0  0  0  0  0  0  0  0  0  0
   -1.1474    0.9529    0.0000 C   0  0  0  0  0  0  0  0  0  0  0  0
   -2.3920    0.2593    0.0000 C   0  0  0  0  0  0  0  0  0  0  0  0
   -0.3824   -3.3385    0.0000 C   0  0  0  0  0  0  0  0  0  0  0  0
    0.8622   -2.6449    0.0000 C   0  0  0  0  0  0  0  0  0  0  0  0
    2.3985   -0.1037    0.0000 C   0  0  0  0  0  0  0  0  0  0  0  0
    3.5200   -0.4213    0.0000 C   0  0  0  0  0  0  0  0  0  0  0  0
    3.2024   -1.5428    0.0000 C   0  0  0  0  0  0  0  0  0  0  0  0
   -1.9772    0.9724    0.0000 C   0  0  0  0  0  0  0  0  0  0  0  0
    0.4343   -3.3449    0.0000 C   0  0  0  0  0  0  0  0  0  0  0  0
    2.8134    0.6094    0.0000 C   0  0  0  0  0  0  0  0  0  0  0  0
    3.5265    0.4084    0.0000 C   0  0  0  0  0  0  0  0  0  0  0  0
  1  2  2  0  0  0  0
  2  3  1  0  0  0  0
  2  4  1  0  0  0  0
  3  5  1  0  0  0  0
  4  6  1  6  0  0  0
  4  7  1  0  0  0  0
  4  8  1  0  0  0  0
  5  9  1  0  0  0  0
  7 10  2  0  0  0  0
  7 11  1  0  0  0  0
  8 12  1  0  0  0  0
  8 13  1  0  0  0  0
  9 14  1  0  0  0  0
 10 15  1  0  0  0  0
 11 16  2  0  0  0  0
 12 17  1  0  0  0  0
 13 18  1  0  0  0  0
 14 19  1  0  0  0  0
 14 20  1  0  0  0  0
 14 21  1  0  0  0  0
 15 22  2  0  0  0  0
 17 23  1  0  0  0  0
 19 24  1  0  0  0  0
 20 25  1  0  0  0  0
 16 22  1  0  0  0  0
 18 23  1  0  0  0  0
M  CHG  1  14   1
M  END

>  <name>
Oxyphenonium

>  <ROTATABLE_BONDCOUNT>
9

>  <HBDScore>
0.8333333333333334

>  <dipole>
21.36

>  <logD>
-0.20

>  <MPOScore>
5.833333333333333

>  <logDScore>
1.0

>  <MW>
348.506

>  <charge_dist(7.4)>
-0.00

>  <CNS>
FALSE

>  <ArRings>
1

>  <HBD>
1

>  <BALABAN_INDEX>
1.87

>  <bpKa>
-4.31

>  <TPSAScore>
1.0

>  <MWScore>
1.0

>  <bpKaScore>
1.0

>  <logPScore>
1.0

>  <MPO_area>
94.44

>  <TPSA>
46.53

>  <logP>
-0.20

$$$$

  Mrv1722703221715202D          

 33 37  0  0  0  0            999 V2000
    0.0000    0.0000    0.0000 O   0  0  0  0  0  0  0  0  0  0  0  0
    0.0782    0.8274    0.0000 C   0  0  0  0  0  0  0  0  0  0  0  0
    0.8274    1.1727    0.0000 N   0  0  0  0  0  0  0  0  0  0  0  0
   -0.5994    1.3161    0.0000 C   0  0  0  0  0  0  0  0  0  0  0  0
    0.9057    2.0002    0.0000 C   0  0  0  0  0  0  0  0  0  0  0  0
    1.4920    0.6971    0.0000 C   0  0  0  0  0  0  0  0  0  0  0  0
   -0.5213    2.1435    0.0000 C   0  0  0  0  0  0  0  0  0  0  0  0
   -1.3617    0.9838    0.0000 C   0  0  0  0  0  0  0  0  0  0  0  0
    1.6549    2.3456    0.0000 N   0  0  0  0  0  0  0  0  0  0  0  0
    0.2280    2.4889    0.0000 C   0  0  0  0  0  0  0  0  0  0  0  0
    2.2738    0.9643    0.0000 C   0  0  0  0  0  0  0  0  0  0  0  0
    1.4855   -0.1238    0.0000 C   0  0  0  0  0  0  0  0  0  0  0  0
   -1.1988    2.6322    0.0000 C   0  0  0  0  0  0  0  0  0  0  0  0
   -2.0393    1.4725    0.0000 O   0  0  0  0  0  0  0  0  0  0  0  0
   -1.4529    0.1694    0.0000 C   0  0  0  0  0  0  0  0  0  0  0  0
    1.7331    3.1730    0.0000 C   0  0  0  0  0  0  0  0  0  0  0  0
    0.3062    3.3163    0.0000 C   0  0  0  0  0  0  0  0  0  0  0  0
    2.7560    0.2997    0.0000 C   0  0  0  0  0  0  0  0  0  0  0  0
    2.2673   -0.3714    0.0000 C   0  0  0  0  0  0  0  0  0  0  0  0
    1.0555    3.6616    0.0000 N   0  0  0  0  0  0  0  0  0  0  0  0
    2.4823    3.5183    0.0000 N   0  0  0  0  0  0  0  0  0  0  0  0
    3.1469    3.0426    0.0000 C   0  0  0  0  0  0  0  0  0  0  0  0
    3.0557    2.2282    0.0000 N   0  0  0  0  0  0  0  0  0  0  0  0
    3.8962    3.3880    0.0000 C   0  0  0  0  0  0  0  0  0  0  0  0
    3.7203    1.7526    0.0000 C   0  0  0  0  0  0  0  0  0  0  0  0
    4.5608    2.9123    0.0000 C   0  0  0  0  0  0  0  0  0  0  0  0
    4.4695    2.0979    0.0000 C   0  0  0  0  0  0  0  0  0  0  0  0
    5.1341    1.6223    0.0000 N   0  0  0  0  0  0  0  0  0  0  0  0
    5.0429    0.8079    0.0000 C   0  0  0  0  0  0  0  0  0  0  0  0
    5.8834    1.9676    0.0000 C   0  0  0  0  0  0  0  0  0  0  0  0
    5.7074    0.3323    0.0000 C   0  0  0  0  0  0  0  0  0  0  0  0
    6.5479    1.4920    0.0000 C   0  0  0  0  0  0  0  0  0  0  0  0
    6.4567    0.6776    0.0000 N   0  0  0  0  0  0  0  0  0  0  0  0
  1  2  2  0  0  0  0
  2  3  1  0  0  0  0
  2  4  1  0  0  0  0
  3  5  1  0  0  0  0
  3  6  1  0  0  0  0
  4  7  2  0  0  0  0
  4  8  1  0  0  0  0
  5  9  2  0  0  0  0
  5 10  1  0  0  0  0
  6 11  1  0  0  0  0
  6 12  1  0  0  0  0
  7 13  1  0  0  0  0
  8 14  2  0  0  0  0
  8 15  1  0  0  0  0
  9 16  1  0  0  0  0
 10 17  2  0  0  0  0
 11 18  1  0  0  0  0
 12 19  1  0  0  0  0
 16 20  2  0  0  0  0
 16 21  1  0  0  0  0
 21 22  1  0  0  0  0
 22 23  2  0  0  0  0
 22 24  1  0  0  0  0
 23 25  1  0  0  0  0
 24 26  2  0  0  0  0
 25 27  2  0  0  0  0
 27 28  1  0  0  0  0
 28 29  1  0  0  0  0
 28 30  1  0  0  0  0
 29 31  1  0  0  0  0
 30 32  1  0  0  0  0
 31 33  1  0  0  0  0
  7 10  1  0  0  0  0
 17 20  1  0  0  0  0
 18 19  1  0  0  0  0
 26 27  1  0  0  0  0
 32 33  1  0  0  0  0
M  END

>  <name>
Palbociclib

>  <ROTATABLE_BONDCOUNT>
5

>  <HBDScore>
0.5

>  <dipole>
12.92

>  <logD>
1.30

>  <MPOScore>
3.9996928571428576

>  <logDScore>
1.0

>  <MW>
447.543

>  <charge_dist(7.4)>
0.97

>  <CNS>
FALSE

>  <ArRings>
3

>  <HBD>
2

>  <BALABAN_INDEX>
1.17

>  <bpKa>
8.86

>  <TPSAScore>
0.5550000000000002

>  <MWScore>
0.37469285714285716

>  <bpKaScore>
0.5700000000000003

>  <logPScore>
1.0

>  <MPO_area>
45.43

>  <TPSA>
103.35

>  <logP>
2.77

$$$$

  Mrv1722703221715202D          

 31 35  0  0  0  0            999 V2000
    0.0000    0.0000    0.0000 F   0  0  0  0  0  0  0  0  0  0  0  0
    0.7044   -0.4174    0.0000 C   0  0  0  0  0  0  0  0  0  0  0  0
    0.6848   -1.2392    0.0000 C   0  0  0  0  0  0  0  0  0  0  0  0
    1.4218   -0.0065    0.0000 C   0  0  0  0  0  0  0  0  0  0  0  0
    1.3892   -1.6566    0.0000 C   0  0  0  0  0  0  0  0  0  0  0  0
    2.1262   -0.4239    0.0000 C   0  0  0  0  0  0  0  0  0  0  0  0
    1.5392   -2.4653    0.0000 O   0  0  0  0  0  0  0  0  0  0  0  0
    2.1066   -1.2457    0.0000 C   0  0  0  0  0  0  0  0  0  0  0  0
    2.3544   -2.5566    0.0000 N   0  0  0  0  0  0  0  0  0  0  0  0
    2.7066   -1.8066    0.0000 C   0  0  0  0  0  0  0  0  0  0  0  0
    3.5154   -1.6436    0.0000 C   0  0  0  0  0  0  0  0  0  0  0  0
    3.7762   -0.8544    0.0000 C   0  0  0  0  0  0  0  0  0  0  0  0
    4.0501   -2.2632    0.0000 C   0  0  0  0  0  0  0  0  0  0  0  0
    4.5850   -0.6913    0.0000 C   0  0  0  0  0  0  0  0  0  0  0  0
    4.8589   -2.1001    0.0000 C   0  0  0  0  0  0  0  0  0  0  0  0
    5.1198   -1.3109    0.0000 N   0  0  0  0  0  0  0  0  0  0  0  0
    5.9285   -1.1479    0.0000 C   0  0  0  0  0  0  0  0  0  0  0  0
    6.4633   -1.7675    0.0000 C   0  0  0  0  0  0  0  0  0  0  0  0
    7.2720   -1.6044    0.0000 C   0  0  0  0  0  0  0  0  0  0  0  0
    7.5329   -0.8153    0.0000 C   0  0  0  0  0  0  0  0  0  0  0  0
    7.8069   -2.2240    0.0000 C   0  0  0  0  0  0  0  0  0  0  0  0
    6.9850   -0.1826    0.0000 O   0  0  0  0  0  0  0  0  0  0  0  0
    8.3417   -0.6522    0.0000 N   0  0  0  0  0  0  0  0  0  0  0  0
    8.6156   -2.0610    0.0000 N   0  0  0  0  0  0  0  0  0  0  0  0
    7.5329   -3.0001    0.0000 C   0  0  0  0  0  0  0  0  0  0  0  0
    8.8764   -1.2718    0.0000 C   0  0  0  0  0  0  0  0  0  0  0  0
    8.6025    0.1370    0.0000 C   0  0  0  0  0  0  0  0  0  0  0  0
    9.6852   -1.1087    0.0000 C   0  0  1  0  0  0  0  0  0  0  0  0
    9.4112    0.3000    0.0000 C   0  0  0  0  0  0  0  0  0  0  0  0
   10.2200   -1.7283    0.0000 O   0  0  0  0  0  0  0  0  0  0  0  0
    9.9460   -0.3196    0.0000 C   0  0  0  0  0  0  0  0  0  0  0  0
  1  2  1  0  0  0  0
  2  3  2  0  0  0  0
  2  4  1  0  0  0  0
  3  5  1  0  0  0  0
  4  6  2  0  0  0  0
  5  7  1  0  0  0  0
  5  8  2  0  0  0  0
  7  9  1  0  0  0  0
  8 10  1  0  0  0  0
 10 11  1  0  0  0  0
 11 12  1  0  0  0  0
 11 13  1  0  0  0  0
 12 14  1  0  0  0  0
 13 15  1  0  0  0  0
 14 16  1  0  0  0  0
 16 17  1  0  0  0  0
 17 18  1  0  0  0  0
 18 19  1  0  0  0  0
 19 20  1  0  0  0  0
 19 21  2  0  0  0  0
 20 22  2  0  0  0  0
 20 23  1  0  0  0  0
 21 24  1  0  0  0  0
 21 25  1  0  0  0  0
 23 26  1  0  0  0  0
 23 27  1  0  0  0  0
 26 28  1  0  0  0  0
 27 29  1  0  0  0  0
 28 30  1  6  0  0  0
 28 31  1  0  0  0  0
  6  8  1  0  0  0  0
  9 10  2  0  0  0  0
 15 16  1  0  0  0  0
 24 26  2  0  0  0  0
 29 31  1  0  0  0  0
M  END

>  <name>
Paliperidone

>  <ROTATABLE_BONDCOUNT>
4

>  <HBDScore>
0.8333333333333334

>  <dipole>
7.03

>  <logD>
0.38

>  <MPOScore>
4.9783904761904765

>  <logDScore>
1.0

>  <MW>
426.492

>  <charge_dist(7.4)>
0.96

>  <CNS>
FALSE

>  <ArRings>
3

>  <HBD>
1

>  <BALABAN_INDEX>
0.93

>  <bpKa>
8.76

>  <TPSAScore>
1.0

>  <MWScore>
0.5250571428571427

>  <bpKaScore>
0.6200000000000001

>  <logPScore>
1.0

>  <MPO_area>
70.01

>  <TPSA>
82.17

>  <logP>
1.76

$$$$

  Mrv1722703221715202D          

 26 28  0  0  0  0            999 V2000
    0.0000    0.0000    0.0000 S   0  0  2  0  0  0  0  0  0  0  0  0
    0.2701    0.7847    0.0000 O   0  0  0  0  0  0  0  0  0  0  0  0
   -0.8169   -0.1415    0.0000 C   0  0  0  0  0  0  0  0  0  0  0  0
    0.5274   -0.6239    0.0000 C   0  0  0  0  0  0  0  0  0  0  0  0
   -1.4214    0.4309    0.0000 N   0  0  0  0  0  0  0  0  0  0  0  0
   -1.1770   -0.8812    0.0000 N   0  0  0  0  0  2  0  0  0  0  0  0
    1.3314   -0.4695    0.0000 C   0  0  0  0  0  0  0  0  0  0  0  0
   -2.1547    0.0450    0.0000 C   0  0  0  0  0  0  0  0  0  0  0  0
   -2.0003   -0.7654    0.0000 C   0  0  0  0  0  0  0  0  0  0  0  0
    1.6015    0.3152    0.0000 N   0  0  0  0  0  0  0  0  0  0  0  0
    1.8588   -1.0934    0.0000 C   0  0  0  0  0  0  0  0  0  0  0  0
   -2.9394    0.3280    0.0000 C   0  0  0  0  0  0  0  0  0  0  0  0
   -2.6370   -1.2928    0.0000 C   0  0  0  0  0  0  0  0  0  0  0  0
    2.4055    0.4695    0.0000 C   0  0  0  0  0  0  0  0  0  0  0  0
    1.5758   -1.8652    0.0000 O   0  0  0  0  0  0  0  0  0  0  0  0
    2.6628   -0.9391    0.0000 C   0  0  0  0  0  0  0  0  0  0  0  0
   -3.5761   -0.1994    0.0000 C   0  0  0  0  0  0  0  0  0  0  0  0
   -3.4217   -1.0098    0.0000 C   0  0  0  0  0  0  0  0  0  0  0  0
    2.9329   -0.1544    0.0000 C   0  0  0  0  0  0  0  0  0  0  0  0
    2.1032   -2.4891    0.0000 C   0  0  0  0  0  0  0  0  0  0  0  0
    3.1902   -1.5629    0.0000 O   0  0  0  0  0  0  0  0  0  0  0  0
   -4.0585   -1.5372    0.0000 O   0  0  0  0  0  0  0  0  0  0  0  0
    3.9942   -1.4086    0.0000 C   0  0  0  0  0  0  0  0  0  0  0  0
   -4.8432   -1.2542    0.0000 C   0  0  0  0  0  0  0  0  0  0  0  0
   -5.4800   -1.7816    0.0000 F   0  0  0  0  0  0  0  0  0  0  0  0
   -4.9975   -0.4374    0.0000 F   0  0  0  0  0  0  0  0  0  0  0  0
  1  2  2  0  0  0  0
  1  3  1  0  0  0  0
  1  4  1  1  0  0  0
  3  5  2  0  0  0  0
  3  6  1  0  0  0  0
  4  7  1  0  0  0  0
  5  8  1  0  0  0  0
  6  9  1  0  0  0  0
  7 10  2  0  0  0  0
  7 11  1  0  0  0  0
  8 12  2  0  0  0  0
  9 13  2  0  0  0  0
 10 14  1  0  0  0  0
 11 15  1  0  0  0  0
 11 16  2  0  0  0  0
 12 17  1  0  0  0  0
 13 18  1  0  0  0  0
 14 19  2  0  0  0  0
 15 20  1  0  0  0  0
 16 21  1  0  0  0  0
 18 22  1  0  0  0  0
 21 23  1  0  0  0  0
 22 24  1  0  0  0  0
 24 25  1  0  0  0  0
 24 26  1  0  0  0  0
  8  9  1  0  0  0  0
 16 19  1  0  0  0  0
 17 18  2  0  0  0  0
M  RAD  1   6   2
M  END

>  <name>
Pantoprazole

>  <ROTATABLE_BONDCOUNT>
7

>  <HBDScore>
1.0

>  <logD>
2.39

>  <MPOScore>
5.6452857142857145

>  <logDScore>
0.8049999999999999

>  <MW>
382.36

>  <charge_dist(7.4)>
0.00

>  <CNS>
FALSE

>  <ArRings>
3

>  <HBD>
0

>  <BALABAN_INDEX>
1.52

>  <bpKa>
3.55

>  <TPSAScore>
1.0

>  <MWScore>
0.8402857142857142

>  <bpKaScore>
1.0

>  <logPScore>
1.0

>  <MPO_area>
88.7

>  <TPSA>
83.43

>  <logP>
2.39

$$$$

  Mrv1722703221715202D          

 12 12  0  0  0  0            999 V2000
    0.0000    0.0000    0.0000 N   0  0  0  0  0  0  0  0  0  0  0  0
   -0.1290    0.8255    0.0000 C   0  0  0  0  0  0  0  0  0  0  0  0
    0.7675   -0.2967    0.0000 C   0  0  0  0  0  0  0  0  0  0  0  0
   -0.6514   -0.5095    0.0000 C   0  0  0  0  0  0  0  0  0  0  0  0
   -0.9094    1.1351    0.0000 C   0  0  0  0  0  0  0  0  0  0  0  0
    1.4060    0.2257    0.0000 C   0  0  0  0  0  0  0  0  0  0  0  0
   -1.6898    1.4447    0.0000 C   0  0  0  0  0  0  0  0  0  0  0  0
    1.2770    1.0513    0.0000 C   0  0  0  0  0  0  0  0  0  0  0  0
    2.1735   -0.0710    0.0000 C   0  0  0  0  0  0  0  0  0  0  0  0
    1.9155    1.5737    0.0000 C   0  0  0  0  0  0  0  0  0  0  0  0
    2.8119    0.4515    0.0000 C   0  0  0  0  0  0  0  0  0  0  0  0
    2.6829    1.2770    0.0000 C   0  0  0  0  0  0  0  0  0  0  0  0
  1  2  1  0  0  0  0
  1  3  1  0  0  0  0
  1  4  1  0  0  0  0
  2  5  1  0  0  0  0
  3  6  1  0  0  0  0
  5  7  3  0  0  0  0
  6  8  2  0  0  0  0
  6  9  1  0  0  0  0
  8 10  1  0  0  0  0
  9 11  2  0  0  0  0
 10 12  2  0  0  0  0
 11 12  1  0  0  0  0
M  END

>  <name>
Pargyline

>  <ROTATABLE_BONDCOUNT>
3

>  <HBDScore>
1.0

>  <dipole>
0.98

>  <logD>
1.41

>  <MPOScore>
4.975

>  <logDScore>
1.0

>  <MW>
159.232

>  <charge_dist(7.4)>
0.82

>  <CNS>
FALSE

>  <ArRings>
1

>  <HBD>
0

>  <BALABAN_INDEX>
2.11

>  <bpKa>
8.05

>  <TPSAScore>
0.0

>  <MWScore>
1.0

>  <bpKaScore>
0.9749999999999996

>  <logPScore>
1.0

>  <MPO_area>
66.25

>  <TPSA>
3.24

>  <logP>
2.14

$$$$

  Mrv1722703221715202D          

 30 32  0  0  0  0            999 V2000
    0.0000    0.0000    0.0000 O   0  0  0  0  0  0  0  0  0  0  0  0
   -0.3590    0.7637    0.0000 C   0  0  0  0  0  0  0  0  0  0  0  0
   -0.7180    1.5273    0.0000 C   0  0  1  0  0  0  0  0  0  0  0  0
    0.3916    1.1227    0.0000 C   0  0  0  0  0  0  0  0  0  0  0  0
   -1.1227    0.4177    0.0000 C   0  0  0  0  0  0  0  0  0  0  0  0
   -0.2480    2.2127    0.0000 C   0  0  0  0  0  0  0  0  0  0  0  0
   -1.5534    1.6057    0.0000 C   0  0  0  0  0  0  0  0  0  0  0  0
    0.5744    2.1474    0.0000 C   0  0  0  0  0  0  0  0  0  0  0  0
    1.0443    2.8327    0.0000 C   0  0  1  0  0  0  0  0  0  0  0  0
    1.8667    2.7674    0.0000 C   0  0  1  0  0  0  0  0  0  0  0  0
    0.6853    3.5964    0.0000 C   0  0  0  0  0  0  0  0  0  0  0  0
    2.2844    2.0625    0.0000 C   0  0  1  0  0  0  0  0  0  0  0  0
    2.4085    3.4006    0.0000 C   0  0  0  0  0  0  0  0  0  0  0  0
    3.0873    2.2518    0.0000 C   0  0  2  0  0  0  0  0  0  0  0  0
    2.0299    1.2728    0.0000 C   0  0  0  0  0  0  0  0  0  0  0  0
    1.4490    1.9711    0.0000 C   0  0  0  0  0  0  0  0  0  0  0  0
    3.1656    3.0807    0.0000 C   0  0  0  0  0  0  0  0  0  0  0  0
    3.6486    1.6514    0.0000 C   0  0  0  0  0  0  0  0  0  0  0  0
    2.5912    0.6723    0.0000 C   0  0  0  0  0  0  0  0  0  0  0  0
    4.4514    1.8406    0.0000 C   0  0  0  0  0  0  0  0  0  0  0  0
    3.3941    0.8616    0.0000 C   0  0  0  0  0  0  0  0  0  0  0  0
    5.0128    1.2401    0.0000 C   0  0  0  0  0  0  0  0  0  0  0  0
    5.8156    1.4294    0.0000 C   0  0  0  0  0  0  0  0  0  0  0  0
    6.3769    0.8289    0.0000 C   0  0  0  0  0  0  0  0  0  0  0  0
    6.0571    2.2322    0.0000 C   0  0  0  0  0  0  0  0  0  0  0  0
    7.1798    1.0182    0.0000 C   0  0  2  0  0  0  0  0  0  0  0  0
    6.8599    2.4215    0.0000 C   0  0  1  0  0  0  0  0  0  0  0  0
    7.7411    0.4177    0.0000 O   0  0  0  0  0  0  0  0  0  0  0  0
    7.4212    1.8210    0.0000 C   0  0  0  0  0  0  0  0  0  0  0  0
    7.1014    3.2244    0.0000 O   0  0  0  0  0  0  0  0  0  0  0  0
  1  2  1  0  0  0  0
  2  3  1  0  0  0  0
  2  4  1  0  0  0  0
  2  5  1  0  0  0  0
  3  6  1  0  0  0  0
  3  7  1  6  0  0  0
  6  8  2  0  0  0  0
  8  9  1  0  0  0  0
  9 10  1  0  0  0  0
  9 11  1  6  0  0  0
 10 12  1  0  0  0  0
 10 13  1  6  0  0  0
 12 14  1  0  0  0  0
 12 15  1  0  0  0  0
 12 16  1  6  0  0  0
 13 17  1  0  0  0  0
 14 18  1  0  0  0  0
 15 19  1  0  0  0  0
 18 20  2  0  0  0  0
 18 21  1  0  0  0  0
 20 22  1  0  0  0  0
 22 23  2  0  0  0  0
 23 24  1  0  0  0  0
 23 25  1  0  0  0  0
 24 26  1  0  0  0  0
 25 27  1  0  0  0  0
 26 28  1  1  0  0  0
 26 29  1  0  0  0  0
 27 30  1  6  0  0  0
 14 17  1  6  0  0  0
 19 21  1  0  0  0  0
 27 29  1  0  0  0  0
M  END

>  <name>
Paricalcitol

>  <ROTATABLE_BONDCOUNT>
5

>  <HBDScore>
0.16666666666666674

>  <dipole>
3.61

>  <logD>
4.26

>  <MPOScore>
3.132052380952381

>  <logDScore>
0.0

>  <MW>
416.646

>  <charge_dist(7.4)>
-0.00

>  <CNS>
FALSE

>  <ArRings>
0

>  <HBD>
3

>  <BALABAN_INDEX>
1.55

>  <bpKa>
-1.03

>  <TPSAScore>
1.0

>  <MWScore>
0.5953857142857142

>  <bpKaScore>
1.0

>  <logPScore>
0.3700000000000001

>  <MPO_area>
31.29

>  <TPSA>
60.69

>  <logP>
4.26

$$$$

  Mrv1722703221715202D          

 13 14  0  0  0  0            999 V2000
    0.0000    0.0000    0.0000 O   0  0  0  0  0  0  0  0  0  0  0  0
   -0.3138   -0.7648    0.0000 C   0  0  0  0  0  0  0  0  0  0  0  0
   -1.1244   -0.9610    0.0000 N   0  0  0  0  0  0  0  0  0  0  0  0
    0.1242   -1.4643    0.0000 C   0  0  2  0  0  0  0  0  0  0  0  0
   -1.1833   -1.7847    0.0000 C   0  0  0  0  0  0  0  0  0  0  0  0
   -0.4118   -2.0985    0.0000 O   0  0  0  0  0  0  0  0  0  0  0  0
    0.9479   -1.5101    0.0000 C   0  0  0  0  0  0  0  0  0  0  0  0
   -1.8958   -2.2227    0.0000 N   0  0  0  0  0  0  0  0  0  0  0  0
    1.3074   -2.2488    0.0000 C   0  0  0  0  0  0  0  0  0  0  0  0
    1.4055   -0.8106    0.0000 C   0  0  0  0  0  0  0  0  0  0  0  0
    2.1311   -2.2946    0.0000 C   0  0  0  0  0  0  0  0  0  0  0  0
    2.2292   -0.8564    0.0000 C   0  0  0  0  0  0  0  0  0  0  0  0
    2.5888   -1.5951    0.0000 C   0  0  0  0  0  0  0  0  0  0  0  0
  1  2  2  0  0  0  0
  2  3  1  0  0  0  0
  2  4  1  0  0  0  0
  3  5  2  0  0  0  0
  4  6  1  0  0  0  0
  4  7  1  1  0  0  0
  5  8  1  0  0  0  0
  7  9  2  0  0  0  0
  7 10  1  0  0  0  0
  9 11  1  0  0  0  0
 10 12  2  0  0  0  0
 11 13  2  0  0  0  0
  5  6  1  0  0  0  0
 12 13  1  0  0  0  0
M  END

>  <name>
Pemoline

>  <ROTATABLE_BONDCOUNT>
1

>  <HBDScore>
0.8333333333333334

>  <dipole>
5.82

>  <logD>
0.80

>  <MPOScore>
5.833333333333333

>  <logDScore>
1.0

>  <MW>
176.175

>  <charge_dist(7.4)>
-0.00

>  <CNS>
FALSE

>  <ArRings>
1

>  <HBD>
1

>  <BALABAN_INDEX>
1.64

>  <bpKa>
-1.42

>  <TPSAScore>
1.0

>  <MWScore>
1.0

>  <bpKaScore>
1.0

>  <logPScore>
1.0

>  <MPO_area>
94.44

>  <TPSA>
64.68

>  <logP>
0.80

$$$$

  Mrv1722703221715202D          

  9  8  0  0  0  0            999 V2000
    0.0000    0.0000    0.0000 S   0  0  0  0  0  0  0  0  0  0  0  0
   -0.7232    0.4003    0.0000 C   0  0  0  0  0  0  0  0  0  0  0  0
   -1.4464    0.8006    0.0000 C   0  0  2  0  0  0  0  0  0  0  0  0
   -0.3357    1.1235    0.0000 C   0  0  0  0  0  0  0  0  0  0  0  0
   -1.1235   -0.3099    0.0000 C   0  0  0  0  0  0  0  0  0  0  0  0
   -1.4722    1.6272    0.0000 N   0  0  0  0  0  0  0  0  0  0  0  0
   -2.1566    0.3809    0.0000 C   0  0  0  0  0  0  0  0  0  0  0  0
   -2.1437   -0.4326    0.0000 O   0  0  0  0  0  0  0  0  0  0  0  0
   -2.8798    0.7813    0.0000 O   0  0  0  0  0  0  0  0  0  0  0  0
  1  2  1  0  0  0  0
  2  3  1  0  0  0  0
  2  4  1  0  0  0  0
  2  5  1  0  0  0  0
  3  6  1  1  0  0  0
  3  7  1  0  0  0  0
  7  8  2  0  0  0  0
  7  9  1  0  0  0  0
M  END

>  <name>
Penicillamine

>  <ROTATABLE_BONDCOUNT>
2

>  <HBDScore>
0.16666666666666674

>  <dipole>
2.40

>  <logD>
-2.15

>  <MPOScore>
4.621666666666667

>  <logDScore>
1.0

>  <MW>
149.21

>  <charge_dist(7.4)>
-0.02

>  <CNS>
FALSE

>  <ArRings>
0

>  <HBD>
3

>  <BALABAN_INDEX>
3.88

>  <bpKa>
9.09

>  <TPSAScore>
1.0

>  <MWScore>
1.0

>  <bpKaScore>
0.45500000000000007

>  <logPScore>
1.0

>  <MPO_area>
61.63

>  <TPSA>
63.32

>  <logP>
-2.15

$$$$

  Mrv1722703221715202D          

 14 15  0  0  0  0            999 V2000
    0.0000    0.0000    0.0000 O   0  0  0  0  0  0  0  0  0  0  0  0
   -0.3573   -0.7470    0.0000 C   0  0  0  0  0  0  0  0  0  0  0  0
    0.0390   -1.4680    0.0000 N   0  0  0  0  0  0  0  0  0  0  0  0
   -1.1757   -0.9029    0.0000 C   0  0  0  0  0  0  0  0  0  0  0  0
   -0.5327   -2.0721    0.0000 N   0  0  0  0  0  0  0  0  0  0  0  0
    0.8574   -1.5589    0.0000 C   0  0  0  0  0  0  0  0  0  0  0  0
   -1.2796   -1.7213    0.0000 C   0  0  0  0  0  0  0  0  0  0  0  0
   -0.3767   -2.8775    0.0000 C   0  0  0  0  0  0  0  0  0  0  0  0
    1.1757   -2.3189    0.0000 C   0  0  0  0  0  0  0  0  0  0  0  0
    1.3510   -0.8899    0.0000 C   0  0  0  0  0  0  0  0  0  0  0  0
   -2.0136   -2.1175    0.0000 C   0  0  0  0  0  0  0  0  0  0  0  0
    1.9941   -2.4098    0.0000 C   0  0  0  0  0  0  0  0  0  0  0  0
    2.1695   -0.9808    0.0000 C   0  0  0  0  0  0  0  0  0  0  0  0
    2.4878   -1.7408    0.0000 C   0  0  0  0  0  0  0  0  0  0  0  0
  1  2  2  0  0  0  0
  2  3  1  0  0  0  0
  2  4  1  0  0  0  0
  3  5  1  0  0  0  0
  3  6  1  0  0  0  0
  4  7  2  0  0  0  0
  5  8  1  0  0  0  0
  6  9  2  0  0  0  0
  6 10  1  0  0  0  0
  7 11  1  0  0  0  0
  9 12  1  0  0  0  0
 10 13  2  0  0  0  0
 12 14  2  0  0  0  0
  5  7  1  0  0  0  0
 13 14  1  0  0  0  0
M  END

>  <name>
Phenazone

>  <ROTATABLE_BONDCOUNT>
1

>  <HBDScore>
1.0

>  <dipole>
8.07

>  <logD>
1.22

>  <MPOScore>
5.1775

>  <logDScore>
1.0

>  <MW>
188.230

>  <charge_dist(7.4)>
0.00

>  <CNS>
FALSE

>  <ArRings>
2

>  <HBD>
0

>  <BALABAN_INDEX>
2.00

>  <bpKa>
0.49

>  <TPSAScore>
0.17750000000000005

>  <MWScore>
1.0

>  <bpKaScore>
1.0

>  <logPScore>
1.0

>  <MPO_area>
72.58

>  <TPSA>
23.55

>  <logP>
1.22

$$$$

  Mrv1722703221715202D          

 16 17  0  0  0  0            999 V2000
    0.0000    0.0000    0.0000 N   0  0  0  0  0  0  0  0  0  0  0  0
   -0.8151   -0.1274    0.0000 C   0  0  0  0  0  0  0  0  0  0  0  0
    0.5094   -0.6304    0.0000 C   0  0  0  0  0  0  0  0  0  0  0  0
   -1.3373    0.5158    0.0000 N   0  0  0  0  0  0  0  0  0  0  0  0
   -1.1144   -0.8851    0.0000 C   0  0  0  0  0  0  0  0  0  0  0  0
    1.3118   -0.4903    0.0000 N   0  0  0  0  0  0  0  0  0  0  0  0
    0.2101   -1.3882    0.0000 C   0  0  0  0  0  0  0  0  0  0  0  0
   -1.9295   -1.0125    0.0000 N   0  0  0  0  0  0  0  0  0  0  0  0
   -0.6050   -1.5156    0.0000 C   0  0  0  0  0  0  0  0  0  0  0  0
   -2.4517   -0.3693    0.0000 N   0  0  0  0  0  0  0  0  0  0  0  0
   -3.2668   -0.4967    0.0000 C   0  0  0  0  0  0  0  0  0  0  0  0
   -3.7889    0.1465    0.0000 C   0  0  0  0  0  0  0  0  0  0  0  0
   -3.5660   -1.2545    0.0000 C   0  0  0  0  0  0  0  0  0  0  0  0
   -4.6040    0.0191    0.0000 C   0  0  0  0  0  0  0  0  0  0  0  0
   -4.3811   -1.3819    0.0000 C   0  0  0  0  0  0  0  0  0  0  0  0
   -4.9033   -0.7387    0.0000 C   0  0  0  0  0  0  0  0  0  0  0  0
  1  2  2  0  0  0  0
  1  3  1  0  0  0  0
  2  4  1  0  0  0  0
  2  5  1  0  0  0  0
  3  6  1  0  0  0  0
  3  7  2  0  0  0  0
  5  8  1  0  0  0  0
  5  9  2  0  0  0  0
  8 10  2  3  0  0  0
 10 11  1  0  0  0  0
 11 12  2  0  0  0  0
 11 13  1  0  0  0  0
 12 14  1  0  0  0  0
 13 15  2  0  0  0  0
 14 16  2  0  0  0  0
  7  9  1  0  0  0  0
 15 16  1  0  0  0  0
M  END

>  <name>
Phenazopyridine

>  <ROTATABLE_BONDCOUNT>
2

>  <HBDScore>
0.5

>  <dipole>
5.58

>  <logD>
2.58

>  <MPOScore>
5.21

>  <logDScore>
0.71

>  <MW>
213.244

>  <charge_dist(7.4)>
0.22

>  <CNS>
FALSE

>  <ArRings>
2

>  <HBD>
2

>  <BALABAN_INDEX>
1.48

>  <bpKa>
6.86

>  <TPSAScore>
1.0

>  <MWScore>
1.0

>  <bpKaScore>
1.0

>  <logPScore>
1.0

>  <MPO_area>
76.08

>  <TPSA>
89.65

>  <logP>
2.69

$$$$

  Mrv1722703221715202D          

 21 23  0  0  0  0            999 V2000
    0.0000    0.0000    0.0000 O   0  0  0  0  0  0  0  0  0  0  0  0
    0.3183   -0.7536    0.0000 C   0  0  0  0  0  0  0  0  0  0  0  0
    1.1368   -0.8445    0.0000 O   0  0  0  0  0  0  0  0  0  0  0  0
   -0.1819   -1.4096    0.0000 C   0  0  0  0  0  0  0  0  0  0  0  0
    1.4551   -1.5981    0.0000 C   0  0  0  0  0  0  0  0  0  0  0  0
    0.1364   -2.1632    0.0000 C   0  0  0  0  0  0  0  0  0  0  0  0
   -1.0134   -1.3057    0.0000 C   0  0  2  0  0  0  0  0  0  0  0  0
    0.9549   -2.2541    0.0000 C   0  0  0  0  0  0  0  0  0  0  0  0
    2.2736   -1.6890    0.0000 C   0  0  0  0  0  0  0  0  0  0  0  0
   -0.3703   -2.8193    0.0000 O   0  0  0  0  0  0  0  0  0  0  0  0
   -1.5201   -1.9618    0.0000 C   0  0  0  0  0  0  0  0  0  0  0  0
   -1.3447   -0.5392    0.0000 C   0  0  0  0  0  0  0  0  0  0  0  0
    1.2732   -3.0077    0.0000 C   0  0  0  0  0  0  0  0  0  0  0  0
    2.5919   -2.4425    0.0000 C   0  0  0  0  0  0  0  0  0  0  0  0
   -2.3516   -1.8579    0.0000 C   0  0  0  0  0  0  0  0  0  0  0  0
   -1.2018   -2.7153    0.0000 C   0  0  0  0  0  0  0  0  0  0  0  0
   -2.1762   -0.4352    0.0000 C   0  0  0  0  0  0  0  0  0  0  0  0
    2.0917   -3.0986    0.0000 C   0  0  0  0  0  0  0  0  0  0  0  0
   -2.8518   -2.5140    0.0000 C   0  0  0  0  0  0  0  0  0  0  0  0
   -1.7020   -3.3715    0.0000 C   0  0  0  0  0  0  0  0  0  0  0  0
   -2.5335   -3.2676    0.0000 C   0  0  0  0  0  0  0  0  0  0  0  0
  1  2  2  0  0  0  0
  2  3  1  0  0  0  0
  2  4  1  0  0  0  0
  3  5  1  0  0  0  0
  4  6  2  0  0  0  0
  4  7  1  0  0  0  0
  5  8  2  0  0  0  0
  5  9  1  0  0  0  0
  6 10  1  0  0  0  0
  7 11  1  0  0  0  0
  7 12  1  6  0  0  0
  8 13  1  0  0  0  0
  9 14  2  0  0  0  0
 11 15  2  0  0  0  0
 11 16  1  0  0  0  0
 12 17  1  0  0  0  0
 13 18  2  0  0  0  0
 15 19  1  0  0  0  0
 16 20  2  0  0  0  0
 19 21  2  0  0  0  0
  6  8  1  0  0  0  0
 14 18  1  0  0  0  0
 20 21  1  0  0  0  0
M  END

>  <name>
Phenprocoumon

>  <ROTATABLE_BONDCOUNT>
3

>  <HBDScore>
0.8333333333333334

>  <dipole>
8.71

>  <logD>
2.03

>  <MPOScore>
5.448333333333333

>  <logDScore>
0.9850000000000001

>  <MW>
280.323

>  <charge_dist(7.4)>
-0.98

>  <CNS>
FALSE

>  <ArRings>
3

>  <HBD>
1

>  <BALABAN_INDEX>
1.51

>  <bpKa>
-6.88

>  <TPSAScore>
1.0

>  <MWScore>
1.0

>  <bpKaScore>
1.0

>  <logPScore>
0.6299999999999999

>  <MPO_area>
82.68

>  <TPSA>
46.53

>  <logP>
3.74

$$$$

  Mrv1722703221715202D          

 14 15  0  0  0  0            999 V2000
    0.0000    0.0000    0.0000 O   0  0  0  0  0  0  0  0  0  0  0  0
   -0.2422   -0.7919    0.0000 C   0  0  0  0  0  0  0  0  0  0  0  0
   -1.0340   -1.0602    0.0000 N   0  0  0  0  0  0  0  0  0  0  0  0
    0.2552   -1.4463    0.0000 C   0  0  1  0  0  0  0  0  0  0  0  0
   -1.0209   -1.8847    0.0000 C   0  0  0  0  0  0  0  0  0  0  0  0
   -1.7277   -0.5824    0.0000 C   0  0  0  0  0  0  0  0  0  0  0  0
    1.0798   -1.4201    0.0000 C   0  0  0  0  0  0  0  0  0  0  0  0
   -0.2225   -2.1268    0.0000 C   0  0  0  0  0  0  0  0  0  0  0  0
   -1.6884   -2.3820    0.0000 O   0  0  0  0  0  0  0  0  0  0  0  0
    1.5051   -2.1203    0.0000 C   0  0  0  0  0  0  0  0  0  0  0  0
    1.4724   -0.6806    0.0000 C   0  0  0  0  0  0  0  0  0  0  0  0
    2.3297   -2.0941    0.0000 C   0  0  0  0  0  0  0  0  0  0  0  0
    2.2970   -0.6544    0.0000 C   0  0  0  0  0  0  0  0  0  0  0  0
    2.7224   -1.3546    0.0000 C   0  0  0  0  0  0  0  0  0  0  0  0
  1  2  2  0  0  0  0
  2  3  1  0  0  0  0
  2  4  1  0  0  0  0
  3  5  1  0  0  0  0
  3  6  1  0  0  0  0
  4  7  1  1  0  0  0
  4  8  1  0  0  0  0
  5  9  2  0  0  0  0
  7 10  2  0  0  0  0
  7 11  1  0  0  0  0
 10 12  1  0  0  0  0
 11 13  2  0  0  0  0
 12 14  2  0  0  0  0
  5  8  1  0  0  0  0
 13 14  1  0  0  0  0
M  END

>  <name>
Phensuximide

>  <ROTATABLE_BONDCOUNT>
1

>  <HBDScore>
1.0

>  <dipole>
0.76

>  <logD>
0.91

>  <MPOScore>
5.869

>  <logDScore>
1.0

>  <MW>
189.214

>  <charge_dist(7.4)>
-0.00

>  <CNS>
FALSE

>  <ArRings>
1

>  <HBD>
0

>  <BALABAN_INDEX>
1.97

>  <bpKa>
-7.4

>  <TPSAScore>
0.8690000000000002

>  <MWScore>
1.0

>  <bpKaScore>
1.0

>  <logPScore>
1.0

>  <MPO_area>
95.63

>  <TPSA>
37.38

>  <logP>
0.91

$$$$

  Mrv1722703221715202D          

 12 12  0  0  0  0            999 V2000
    0.0000    0.0000    0.0000 O   0  0  0  0  0  0  0  0  0  0  0  0
   -0.3147   -0.7579    0.0000 C   0  0  0  0  0  0  0  0  0  0  0  0
   -1.1369   -0.8671    0.0000 C   0  0  0  0  0  0  0  0  0  0  0  0
    0.1863   -1.4002    0.0000 C   0  0  0  0  0  0  0  0  0  0  0  0
   -1.4516   -1.6250    0.0000 C   0  0  0  0  0  0  0  0  0  0  0  0
   -0.1285   -2.1581    0.0000 C   0  0  0  0  0  0  0  0  0  0  0  0
   -0.9506   -2.2673    0.0000 C   0  0  0  0  0  0  0  0  0  0  0  0
   -2.2737   -1.7342    0.0000 C   0  0  1  0  0  0  0  0  0  0  0  0
   -2.5884   -2.4921    0.0000 O   0  0  0  0  0  0  0  0  0  0  0  0
   -2.7875   -1.0790    0.0000 C   0  0  0  0  0  0  0  0  0  0  0  0
   -3.6097   -1.1883    0.0000 N   0  0  0  0  0  0  0  0  0  0  0  0
   -4.1235   -0.5331    0.0000 C   0  0  0  0  0  0  0  0  0  0  0  0
  1  2  1  0  0  0  0
  2  3  2  0  0  0  0
  2  4  1  0  0  0  0
  3  5  1  0  0  0  0
  4  6  2  0  0  0  0
  5  7  2  0  0  0  0
  5  8  1  0  0  0  0
  8  9  1  1  0  0  0
  8 10  1  0  0  0  0
 10 11  1  0  0  0  0
 11 12  1  0  0  0  0
  6  7  1  0  0  0  0
M  END

>  <name>
Phenylephrine

>  <ROTATABLE_BONDCOUNT>
3

>  <HBDScore>
0.16666666666666674

>  <dipole>
1.24

>  <logD>
-1.35

>  <MPOScore>
4.321666666666667

>  <logDScore>
1.0

>  <MW>
167.208

>  <charge_dist(7.4)>
0.97

>  <CNS>
FALSE

>  <ArRings>
1

>  <HBD>
3

>  <BALABAN_INDEX>
2.29

>  <bpKa>
9.69

>  <TPSAScore>
1.0

>  <MWScore>
1.0

>  <bpKaScore>
0.15500000000000025

>  <logPScore>
1.0

>  <MPO_area>
55.79

>  <TPSA>
52.49

>  <logP>
-0.07

$$$$

  Mrv1722703221715202D          

 15 16  0  0  0  0            999 V2000
    0.0000    0.0000    0.0000 O   0  0  0  0  0  0  0  0  0  0  0  0
   -0.8295    0.0194    0.0000 C   0  0  0  0  0  0  0  0  0  0  0  0
   -1.3090    0.6998    0.0000 O   0  0  0  0  0  0  0  0  0  0  0  0
   -1.3284   -0.6350    0.0000 C   0  0  2  0  0  0  0  0  0  0  0  0
   -2.0995    0.4601    0.0000 C   0  0  0  0  0  0  0  0  0  0  0  0
   -2.1125   -0.3629    0.0000 C   0  0  2  0  0  0  0  0  0  0  0  0
   -1.0887   -1.4127    0.0000 C   0  0  0  0  0  0  0  0  0  0  0  0
   -2.7929   -0.8295    0.0000 C   0  0  0  0  0  0  0  0  0  0  0  0
   -0.2916   -1.5876    0.0000 C   0  0  0  0  0  0  0  0  0  0  0  0
   -3.5446   -0.4795    0.0000 C   0  0  0  0  0  0  0  0  0  0  0  0
   -4.2703   -0.8748    0.0000 N   0  0  0  0  0  0  0  0  0  0  0  0
   -3.7130    0.3370    0.0000 C   0  0  0  0  0  0  0  0  0  0  0  0
   -4.8795   -0.3111    0.0000 C   0  0  0  0  0  0  0  0  0  0  0  0
   -4.3740   -1.6848    0.0000 C   0  0  0  0  0  0  0  0  0  0  0  0
   -4.5360    0.4406    0.0000 N   0  0  0  0  0  0  0  0  0  0  0  0
  1  2  2  0  0  0  0
  2  3  1  0  0  0  0
  2  4  1  0  0  0  0
  3  5  1  0  0  0  0
  4  6  1  0  0  0  0
  4  7  1  1  0  0  0
  6  8  1  1  0  0  0
  7  9  1  0  0  0  0
  8 10  1  0  0  0  0
 10 11  1  0  0  0  0
 10 12  2  0  0  0  0
 11 13  1  0  0  0  0
 11 14  1  0  0  0  0
 12 15  1  0  0  0  0
  5  6  1  0  0  0  0
 13 15  2  0  0  0  0
M  END

>  <name>
Pilocarpine

>  <ROTATABLE_BONDCOUNT>
3

>  <HBDScore>
1.0

>  <dipole>
4.82

>  <logD>
0.92

>  <MPOScore>
6.0

>  <logDScore>
1.0

>  <MW>
208.261

>  <charge_dist(7.4)>
0.08

>  <CNS>
FALSE

>  <ArRings>
1

>  <HBD>
0

>  <BALABAN_INDEX>
1.76

>  <bpKa>
6.37

>  <TPSAScore>
1.0

>  <MWScore>
1.0

>  <bpKaScore>
1.0

>  <logPScore>
1.0

>  <MPO_area>
100.0

>  <TPSA>
44.12

>  <logP>
0.95

$$$$

  Mrv1722703221715202D          

 18 18  0  0  0  0            999 V2000
    0.0000    0.0000    0.0000 N   0  0  0  0  0  0  0  0  0  0  0  0
   -0.0323    0.8287    0.0000 C   0  0  0  0  0  0  0  0  0  0  0  0
   -0.0647    1.6574    0.0000 N   0  0  0  0  0  0  0  0  0  0  0  0
    0.6280    2.0977    0.0000 C   0  0  0  0  0  0  0  0  0  0  0  0
    0.5956    2.9264    0.0000 N   0  0  0  0  0  0  0  0  0  0  0  0
    1.3467    1.7157    0.0000 N   0  0  0  0  0  0  0  0  0  0  0  0
   -0.1360    3.3214    0.0000 C   0  0  2  0  0  0  0  0  0  0  0  0
    2.0394    2.1559    0.0000 C   0  0  0  0  0  0  0  0  0  0  0  0
   -0.8417    2.8941    0.0000 C   0  0  0  0  0  0  0  0  0  0  0  0
   -0.1683    4.1500    0.0000 C   0  0  0  0  0  0  0  0  0  0  0  0
    2.0071    2.9847    0.0000 C   0  0  0  0  0  0  0  0  0  0  0  0
    2.7581    1.7740    0.0000 C   0  0  0  0  0  0  0  0  0  0  0  0
   -1.2819    3.5998    0.0000 C   0  0  0  0  0  0  0  0  0  0  0  0
   -0.4144    2.2013    0.0000 C   0  0  0  0  0  0  0  0  0  0  0  0
   -1.5474    2.4667    0.0000 C   0  0  0  0  0  0  0  0  0  0  0  0
    2.6998    3.4250    0.0000 C   0  0  0  0  0  0  0  0  0  0  0  0
    3.4508    2.2142    0.0000 C   0  0  0  0  0  0  0  0  0  0  0  0
    3.4185    3.0429    0.0000 N   0  0  0  0  0  0  0  0  0  0  0  0
  1  2  3  0  0  0  0
  2  3  1  0  0  0  0
  3  4  1  0  0  0  0
  4  5  2  3  0  0  0
  4  6  1  0  0  0  0
  7  5  1  6  0  0  0
  6  8  1  0  0  0  0
  7  9  1  0  0  0  0
  7 10  1  0  0  0  0
  8 11  2  0  0  0  0
  8 12  1  0  0  0  0
  9 13  1  0  0  0  0
  9 14  1  0  0  0  0
  9 15  1  0  0  0  0
 11 16  1  0  0  0  0
 12 17  2  0  0  0  0
 16 18  2  0  0  0  0
 17 18  1  0  0  0  0
M  END

>  <name>
Pinacidil

>  <ROTATABLE_BONDCOUNT>
3

>  <HBDScore>
0.5

>  <dipole>
2.02

>  <logD>
2.24

>  <MPOScore>
5.38

>  <logDScore>
0.8799999999999999

>  <MW>
245.330

>  <charge_dist(7.4)>
0.02

>  <CNS>
FALSE

>  <ArRings>
1

>  <HBD>
2

>  <BALABAN_INDEX>
2.43

>  <bpKa>
5.62

>  <TPSAScore>
1.0

>  <MWScore>
1.0

>  <bpKaScore>
1.0

>  <logPScore>
1.0

>  <MPO_area>
80.33

>  <TPSA>
73.10

>  <logP>
2.25

$$$$

  Mrv1722703221715202D          

 16 16  0  0  0  0            999 V2000
    0.0000    0.0000    0.0000 Br  0  0  0  0  0  0  0  0  0  0  0  0
   -0.5720    0.6035    0.0000 C   0  0  0  0  0  0  0  0  0  0  0  0
   -1.3766    0.4212    0.0000 C   0  0  0  0  0  0  0  0  0  0  0  0
   -1.9487    1.0246    0.0000 C   0  0  0  0  0  0  0  0  0  0  0  0
   -1.7224    1.8167    0.0000 O   0  0  0  0  0  0  0  0  0  0  0  0
   -2.7533    0.8423    0.0000 N   0  0  0  0  0  0  0  0  0  0  0  0
   -3.3253    1.4458    0.0000 C   0  0  0  0  0  0  0  0  0  0  0  0
   -2.9921    0.0628    0.0000 C   0  0  0  0  0  0  0  0  0  0  0  0
   -4.1299    1.2635    0.0000 C   0  0  0  0  0  0  0  0  0  0  0  0
   -3.7968   -0.1194    0.0000 C   0  0  0  0  0  0  0  0  0  0  0  0
   -4.3688    0.4840    0.0000 N   0  0  0  0  0  0  0  0  0  0  0  0
   -5.1734    0.3017    0.0000 C   0  0  0  0  0  0  0  0  0  0  0  0
   -5.4123   -0.4778    0.0000 O   0  0  0  0  0  0  0  0  0  0  0  0
   -5.7454    0.9052    0.0000 C   0  0  0  0  0  0  0  0  0  0  0  0
   -6.5500    0.7229    0.0000 C   0  0  0  0  0  0  0  0  0  0  0  0
   -7.1220    1.3263    0.0000 Br  0  0  0  0  0  0  0  0  0  0  0  0
  1  2  1  0  0  0  0
  2  3  1  0  0  0  0
  3  4  1  0  0  0  0
  4  5  2  0  0  0  0
  4  6  1  0  0  0  0
  6  7  1  0  0  0  0
  6  8  1  0  0  0  0
  7  9  1  0  0  0  0
  8 10  1  0  0  0  0
  9 11  1  0  0  0  0
 11 12  1  0  0  0  0
 12 13  2  0  0  0  0
 12 14  1  0  0  0  0
 14 15  1  0  0  0  0
 15 16  1  0  0  0  0
 10 11  1  0  0  0  0
M  END

>  <name>
Pipobroman

>  <ROTATABLE_BONDCOUNT>
4

>  <HBDScore>
1.0

>  <dipole>
3.69

>  <logD>
0.41

>  <MPOScore>
6.0

>  <logDScore>
1.0

>  <MW>
356.058

>  <charge_dist(7.4)>
0.00

>  <CNS>
FALSE

>  <ArRings>
0

>  <HBD>
0

>  <BALABAN_INDEX>
2.27

>  <bpKa>
-1.26

>  <TPSAScore>
1.0

>  <MWScore>
1.0

>  <bpKaScore>
1.0

>  <logPScore>
1.0

>  <MPO_area>
100.0

>  <TPSA>
40.62

>  <logP>
0.41

$$$$

  Mrv1722703221715202D          

 26 29  0  0  0  0            999 V2000
    0.0000    0.0000    0.0000 O   0  0  0  0  0  0  0  0  0  0  0  0
    0.6581    0.5017    0.0000 C   0  0  0  0  0  0  0  0  0  0  0  0
    0.4886    1.3226    0.0000 N   0  0  0  0  0  0  0  0  0  0  0  0
    1.3877    0.1238    0.0000 C   0  0  0  0  0  0  0  0  0  0  0  0
    1.0164    1.9611    0.0000 C   0  0  0  0  0  0  0  0  0  0  0  0
    2.1370    0.4691    0.0000 C   0  0  0  0  0  0  0  0  0  0  0  0
    1.2965   -0.6906    0.0000 C   0  0  0  0  0  0  0  0  0  0  0  0
    1.8373    1.9415    0.0000 C   0  0  0  0  0  0  0  0  0  0  0  0
    0.6189    2.6973    0.0000 C   0  0  0  0  0  0  0  0  0  0  0  0
    2.3390    1.2770    0.0000 N   0  0  0  0  0  0  0  0  0  0  0  0
    2.8016   -0.0130    0.0000 C   0  0  0  0  0  0  0  0  0  0  0  0
    1.9611   -1.1728    0.0000 C   0  0  0  0  0  0  0  0  0  0  0  0
    2.2673    2.6517    0.0000 N   0  0  0  0  0  0  0  0  0  0  0  0
    1.0489    3.4075    0.0000 C   0  0  0  0  0  0  0  0  0  0  0  0
    3.1469    1.4464    0.0000 C   0  0  0  0  0  0  0  0  0  0  0  0
    2.7104   -0.8275    0.0000 C   0  0  0  0  0  0  0  0  0  0  0  0
    1.8699    3.3880    0.0000 C   0  0  0  0  0  0  0  0  0  0  0  0
    3.4075    2.2348    0.0000 O   0  0  0  0  0  0  0  0  0  0  0  0
    3.6876    0.8275    0.0000 C   0  0  0  0  0  0  0  0  0  0  0  0
    4.4955    0.9969    0.0000 N   0  0  0  0  0  0  0  0  0  0  0  0
    5.0363    0.3779    0.0000 C   0  0  0  0  0  0  0  0  0  0  0  0
    4.7561    1.7852    0.0000 C   0  0  0  0  0  0  0  0  0  0  0  0
    5.8442    0.5473    0.0000 C   0  0  0  0  0  0  0  0  0  0  0  0
    5.5640    1.9546    0.0000 C   0  0  0  0  0  0  0  0  0  0  0  0
    6.1048    1.3356    0.0000 N   0  0  0  0  0  0  0  0  0  0  0  0
    6.9127    1.5050    0.0000 C   0  0  0  0  0  0  0  0  0  0  0  0
  1  2  2  0  0  0  0
  2  3  1  0  0  0  0
  2  4  1  0  0  0  0
  3  5  1  0  0  0  0
  4  6  2  0  0  0  0
  4  7  1  0  0  0  0
  5  8  2  0  0  0  0
  5  9  1  0  0  0  0
  6 10  1  0  0  0  0
  6 11  1  0  0  0  0
  7 12  2  0  0  0  0
  8 13  1  0  0  0  0
  9 14  2  0  0  0  0
 10 15  1  0  0  0  0
 11 16  2  0  0  0  0
 13 17  2  0  0  0  0
 15 18  2  0  0  0  0
 15 19  1  0  0  0  0
 19 20  1  0  0  0  0
 20 21  1  0  0  0  0
 20 22  1  0  0  0  0
 21 23  1  0  0  0  0
 22 24  1  0  0  0  0
 23 25  1  0  0  0  0
 25 26  1  0  0  0  0
  8 10  1  0  0  0  0
 12 16  1  0  0  0  0
 14 17  1  0  0  0  0
 24 25  1  0  0  0  0
M  END

>  <name>
Pirenzepine

>  <ROTATABLE_BONDCOUNT>
2

>  <HBDScore>
0.8333333333333334

>  <dipole>
3.90

>  <logD>
0.76

>  <MPOScore>
5.833333333333333

>  <logDScore>
1.0

>  <MW>
351.410

>  <charge_dist(7.4)>
0.38

>  <CNS>
FALSE

>  <ArRings>
2

>  <HBD>
1

>  <BALABAN_INDEX>
1.31

>  <bpKa>
7.2

>  <TPSAScore>
1.0

>  <MWScore>
1.0

>  <bpKaScore>
1.0

>  <logPScore>
1.0

>  <MPO_area>
94.44

>  <TPSA>
68.78

>  <logP>
0.97

$$$$

  Mrv1722703221715202D          

 31 34  0  0  0  0            999 V2000
    0.0000    0.0000    0.0000 F   0  0  0  0  0  0  0  0  0  0  0  0
   -0.0129    0.8249    0.0000 C   0  0  0  0  0  0  0  0  0  0  0  0
   -0.7347    1.2309    0.0000 C   0  0  0  0  0  0  0  0  0  0  0  0
    0.6831    1.2502    0.0000 C   0  0  0  0  0  0  0  0  0  0  0  0
   -0.7476    2.0558    0.0000 C   0  0  0  0  0  0  0  0  0  0  0  0
    0.6702    2.0751    0.0000 C   0  0  0  0  0  0  0  0  0  0  0  0
   -0.0516    2.4812    0.0000 C   0  0  0  0  0  0  0  0  0  0  0  0
   -0.0644    3.3061    0.0000 C   0  0  0  0  0  0  0  0  0  0  0  0
    0.6316    3.7314    0.0000 C   0  0  0  0  0  0  0  0  0  0  0  0
   -0.7862    3.7120    0.0000 C   0  0  0  0  0  0  0  0  0  0  0  0
    0.6187    4.5563    0.0000 C   0  0  0  0  0  0  0  0  0  0  0  0
    1.3405    3.3383    0.0000 C   0  0  0  0  0  0  0  0  0  0  0  0
   -0.7991    4.5369    0.0000 C   0  0  0  0  0  0  0  0  0  0  0  0
   -1.4951    3.2996    0.0000 C   0  0  0  0  0  0  0  0  0  0  0  0
   -0.1031    4.9623    0.0000 N   0  0  0  0  0  0  0  0  0  0  0  0
    1.3147    4.9816    0.0000 C   0  0  0  0  0  0  0  0  0  0  0  0
    2.0365    3.7636    0.0000 C   0  0  0  0  0  0  0  0  0  0  0  0
   -1.5209    4.9429    0.0000 C   0  0  0  0  0  0  0  0  0  0  0  0
   -2.2169    3.7056    0.0000 C   0  0  0  0  0  0  0  0  0  0  0  0
    2.0236    4.5885    0.0000 C   0  0  0  0  0  0  0  0  0  0  0  0
   -2.3458    4.9429    0.0000 C   0  0  0  0  0  0  0  0  0  0  0  0
   -1.9462    5.6519    0.0000 C   0  0  0  0  0  0  0  0  0  0  0  0
   -2.9258    3.2931    0.0000 C   0  0  1  0  0  0  0  0  0  0  0  0
   -2.9258    2.4812    0.0000 O   0  0  0  0  0  0  0  0  0  0  0  0
   -3.6476    3.6992    0.0000 C   0  0  0  0  0  0  0  0  0  0  0  0
   -4.3565    3.2867    0.0000 C   0  0  1  0  0  0  0  0  0  0  0  0
   -4.3565    2.4747    0.0000 O   0  0  0  0  0  0  0  0  0  0  0  0
   -5.0783    3.6927    0.0000 C   0  0  0  0  0  0  0  0  0  0  0  0
   -5.7872    3.2803    0.0000 C   0  0  0  0  0  0  0  0  0  0  0  0
   -5.7872    2.4682    0.0000 O   0  0  0  0  0  0  0  0  0  0  0  0
   -6.5090    3.6863    0.0000 O   0  0  0  0  0  0  0  0  0  0  0  0
  1  2  1  0  0  0  0
  2  3  2  0  0  0  0
  2  4  1  0  0  0  0
  3  5  1  0  0  0  0
  4  6  2  0  0  0  0
  5  7  2  0  0  0  0
  7  8  1  0  0  0  0
  8  9  1  0  0  0  0
  8 10  2  0  0  0  0
  9 11  2  0  0  0  0
  9 12  1  0  0  0  0
 10 13  1  0  0  0  0
 10 14  1  0  0  0  0
 11 15  1  0  0  0  0
 11 16  1  0  0  0  0
 12 17  2  0  0  0  0
 13 18  1  0  0  0  0
 14 19  2  0  0  0  0
 16 20  2  0  0  0  0
 18 21  1  0  0  0  0
 18 22  1  0  0  0  0
 19 23  1  0  0  0  0
 23 24  1  1  0  0  0
 23 25  1  0  0  0  0
 25 26  1  0  0  0  0
 26 27  1  1  0  0  0
 26 28  1  0  0  0  0
 28 29  1  0  0  0  0
 29 30  2  0  0  0  0
 29 31  1  0  0  0  0
  6  7  1  0  0  0  0
 13 15  2  0  0  0  0
 17 20  1  0  0  0  0
 21 22  1  0  0  0  0
M  END

>  <name>
Pitavastatin

>  <ROTATABLE_BONDCOUNT>
8

>  <HBDScore>
0.16666666666666674

>  <dipole>
4.39

>  <logD>
0.89

>  <MPOScore>
4.705942857142857

>  <logDScore>
1.0

>  <MW>
421.468

>  <charge_dist(7.4)>
-1.00

>  <CNS>
FALSE

>  <ArRings>
3

>  <HBD>
3

>  <BALABAN_INDEX>
1.28

>  <bpKa>
4.86

>  <TPSAScore>
0.9783333333333332

>  <MWScore>
0.560942857142857

>  <bpKaScore>
1.0

>  <logPScore>
1.0

>  <MPO_area>
63.12

>  <TPSA>
90.65

>  <logP>
2.92

$$$$

  Mrv1722703221715202D          

 39 43  0  0  0  0            999 V2000
    0.0000    0.0000    0.0000 F   0  0  0  0  0  0  0  0  0  0  0  0
    0.5224    0.6385    0.0000 C   0  0  0  0  0  0  0  0  0  0  0  0
    1.1480    0.1161    0.0000 F   0  0  0  0  0  0  0  0  0  0  0  0
   -0.1161    1.1738    0.0000 F   0  0  0  0  0  0  0  0  0  0  0  0
    1.0448    1.2770    0.0000 C   0  0  0  0  0  0  0  0  0  0  0  0
    0.7546    2.0575    0.0000 C   0  0  0  0  0  0  0  0  0  0  0  0
    1.8446    1.1416    0.0000 C   0  0  0  0  0  0  0  0  0  0  0  0
    1.2770    2.6959    0.0000 C   0  0  0  0  0  0  0  0  0  0  0  0
   -0.0581    2.2058    0.0000 C   0  0  0  0  0  0  0  0  0  0  0  0
    2.3670    1.7801    0.0000 C   0  0  0  0  0  0  0  0  0  0  0  0
    2.0768    2.5605    0.0000 C   0  0  0  0  0  0  0  0  0  0  0  0
   -0.3483    2.9862    0.0000 N   0  0  0  0  0  0  0  0  0  0  0  0
    3.1668    1.6447    0.0000 N   0  0  0  0  0  0  0  0  0  0  0  0
    0.1741    3.6247    0.0000 C   0  0  0  0  0  0  0  0  0  0  0  0
   -1.1610    3.1346    0.0000 C   0  0  0  0  0  0  0  0  0  0  0  0
    3.4441    0.8772    0.0000 C   0  0  0  0  0  0  0  0  0  0  0  0
   -0.1161    4.4051    0.0000 C   0  0  0  0  0  0  0  0  0  0  0  0
   -1.4512    3.9149    0.0000 C   0  0  0  0  0  0  0  0  0  0  0  0
    2.9088    0.2515    0.0000 O   0  0  0  0  0  0  0  0  0  0  0  0
    4.2439    0.7417    0.0000 C   0  0  0  0  0  0  0  0  0  0  0  0
   -0.9288    4.5535    0.0000 N   0  0  0  0  0  0  0  0  0  0  0  0
    4.7663    1.3802    0.0000 C   0  0  0  0  0  0  0  0  0  0  0  0
    4.5212   -0.0258    0.0000 C   0  0  0  0  0  0  0  0  0  0  0  0
   -1.2190    5.3339    0.0000 C   0  0  0  0  0  0  0  0  0  0  0  0
    5.5660    1.2448    0.0000 C   0  0  0  0  0  0  0  0  0  0  0  0
    5.3210   -0.1613    0.0000 C   0  0  0  0  0  0  0  0  0  0  0  0
    6.0885    1.8833    0.0000 C   0  0  0  0  0  0  0  0  0  0  0  0
    5.8434    0.4773    0.0000 C   0  0  0  0  0  0  0  0  0  0  0  0
    6.6109    2.5218    0.0000 C   0  0  0  0  0  0  0  0  0  0  0  0
    6.6431    0.3418    0.0000 C   0  0  0  0  0  0  0  0  0  0  0  0
    7.1333    3.1604    0.0000 C   0  0  0  0  0  0  0  0  0  0  0  0
    7.9460    3.1088    0.0000 N   0  0  0  0  0  0  0  0  0  0  0  0
    6.9269    3.9601    0.0000 C   0  0  0  0  0  0  0  0  0  0  0  0
    8.4426    2.4702    0.0000 N   0  0  0  0  0  0  0  0  0  0  0  0
    8.2491    3.8762    0.0000 C   0  0  0  0  0  0  0  0  0  0  0  0
    7.6170    4.4051    0.0000 N   0  0  0  0  0  0  0  0  0  0  0  0
    9.2488    2.5927    0.0000 C   0  0  0  0  0  0  0  0  0  0  0  0
    9.0553    3.9988    0.0000 C   0  0  0  0  0  0  0  0  0  0  0  0
    9.5519    3.3603    0.0000 C   0  0  0  0  0  0  0  0  0  0  0  0
  1  2  1  0  0  0  0
  2  3  1  0  0  0  0
  2  4  1  0  0  0  0
  2  5  1  0  0  0  0
  5  6  2  0  0  0  0
  5  7  1  0  0  0  0
  6  8  1  0  0  0  0
  6  9  1  0  0  0  0
  7 10  2  0  0  0  0
  8 11  2  0  0  0  0
  9 12  1  0  0  0  0
 10 13  1  0  0  0  0
 12 14  1  0  0  0  0
 12 15  1  0  0  0  0
 13 16  1  0  0  0  0
 14 17  1  0  0  0  0
 15 18  1  0  0  0  0
 16 19  2  0  0  0  0
 16 20  1  0  0  0  0
 17 21  1  0  0  0  0
 20 22  2  0  0  0  0
 20 23  1  0  0  0  0
 21 24  1  0  0  0  0
 22 25  1  0  0  0  0
 23 26  2  0  0  0  0
 25 27  1  0  0  0  0
 25 28  2  0  0  0  0
 27 29  3  0  0  0  0
 28 30  1  0  0  0  0
 29 31  1  0  0  0  0
 31 32  1  0  0  0  0
 31 33  2  0  0  0  0
 32 34  1  0  0  0  0
 32 35  1  0  0  0  0
 33 36  1  0  0  0  0
 34 37  2  0  0  0  0
 35 38  1  0  0  0  0
 37 39  1  0  0  0  0
 10 11  1  0  0  0  0
 18 21  1  0  0  0  0
 26 28  1  0  0  0  0
 35 36  2  0  0  0  0
 38 39  2  0  0  0  0
M  END

>  <name>
Ponatinib

>  <ROTATABLE_BONDCOUNT>
7

>  <HBDScore>
0.8333333333333334

>  <dipole>
5.44

>  <logD>
4.54

>  <MPOScore>
2.8483333333333336

>  <logDScore>
0.0

>  <MW>
532.571

>  <charge_dist(7.4)>
0.61

>  <CNS>
FALSE

>  <ArRings>
4

>  <HBD>
1

>  <BALABAN_INDEX>
1.08

>  <bpKa>
7.62

>  <TPSAScore>
1.0

>  <MWScore>
0.0

>  <bpKaScore>
1.0

>  <logPScore>
0.015000000000000124

>  <MPO_area>
30.76

>  <TPSA>
65.77

>  <logP>
4.97

$$$$

  Mrv1722703221715202D          

 10 10  0  0  0  0            999 V2000
    0.0000    0.0000    0.0000 O   0  0  0  0  0  0  0  0  0  0  0  0
    0.7893    0.2400    0.0000 N   0  3  0  0  0  0  0  0  0  0  0  0
    1.3766   -0.3221    0.0000 C   0  0  0  0  0  0  0  0  0  0  0  0
    2.1659   -0.0821    0.0000 C   0  0  0  0  0  0  0  0  0  0  0  0
    2.7532   -0.6441    0.0000 N   0  0  0  0  0  0  0  0  0  0  0  0
    2.3554    0.7262    0.0000 C   0  0  0  0  0  0  0  0  0  0  0  0
    3.5426   -0.4041    0.0000 C   0  0  0  0  0  0  0  0  0  0  0  0
    2.5511   -1.4397    0.0000 C   0  0  0  0  0  0  0  0  0  0  0  0
    3.1447    0.9662    0.0000 C   0  0  0  0  0  0  0  0  0  0  0  0
    3.7320    0.4041    0.0000 C   0  0  0  0  0  0  0  0  0  0  0  0
  1  2  2  0  0  0  0
  2  3  1  0  0  0  0
  3  4  2  0  0  0  0
  4  5  1  0  0  0  0
  4  6  1  0  0  0  0
  5  7  1  0  0  0  0
  5  8  1  0  0  0  0
  6  9  2  0  0  0  0
  7 10  2  0  0  0  0
  9 10  1  0  0  0  0
M  CHG  1   2   1
M  END

>  <name>
Pralidoxime

>  <ROTATABLE_BONDCOUNT>
1

>  <HBDScore>
0.8333333333333334

>  <dipole>
1.39

>  <logD>
0.42

>  <MPOScore>
5.5473333333333334

>  <logDScore>
1.0

>  <MW>
137.161

>  <charge_dist(7.4)>
0.00

>  <CNS>
FALSE

>  <ArRings>
0

>  <HBD>
1

>  <BALABAN_INDEX>
2.25

>  <bpKa>
4.4

>  <TPSAScore>
0.7140000000000001

>  <MWScore>
1.0

>  <bpKaScore>
1.0

>  <logPScore>
1.0

>  <MPO_area>
85.71

>  <TPSA>
34.28

>  <logP>
0.42

$$$$

  Mrv1722703221715202D          

 30 31  0  0  0  0            999 V2000
    0.0000    0.0000    0.0000 O   0  0  0  0  0  0  0  0  0  0  0  0
   -0.7369    0.3814    0.0000 C   0  0  0  0  0  0  0  0  0  0  0  0
   -0.7821    1.2088    0.0000 O   0  0  0  0  0  0  0  0  0  0  0  0
   -1.4350   -0.0582    0.0000 C   0  0  2  0  0  0  0  0  0  0  0  0
   -0.0970    1.6612    0.0000 C   0  0  2  0  0  0  0  0  0  0  0  0
   -2.1719    0.3232    0.0000 C   0  0  0  0  0  0  0  0  0  0  0  0
   -1.4027   -0.8726    0.0000 C   0  0  0  0  0  0  0  0  0  0  0  0
   -0.1422    2.4886    0.0000 C   0  0  1  0  0  0  0  0  0  0  0  0
    0.6270    1.2928    0.0000 C   0  0  0  0  0  0  0  0  0  0  0  0
   -2.8700   -0.1163    0.0000 C   0  0  0  0  0  0  0  0  0  0  0  0
    0.5430    2.9411    0.0000 C   0  0  0  0  0  0  0  0  0  0  0  0
   -0.8791    2.8700    0.0000 C   0  0  2  0  0  0  0  0  0  0  0  0
    1.3122    1.7453    0.0000 C   0  0  1  0  0  0  0  0  0  0  0  0
    0.4977    3.7685    0.0000 C   0  0  0  0  0  0  0  0  0  0  0  0
    1.2670    2.5727    0.0000 C   0  0  0  0  0  0  0  0  0  0  0  0
   -0.9244    3.6974    0.0000 C   0  0  2  0  0  0  0  0  0  0  0  0
   -1.5772    2.4305    0.0000 C   0  0  0  0  0  0  0  0  0  0  0  0
    2.0361    1.3768    0.0000 O   0  0  0  0  0  0  0  0  0  0  0  0
   -0.2392    4.1499    0.0000 C   0  0  0  0  0  0  0  0  0  0  0  0
   -1.6612    4.0788    0.0000 C   0  0  0  0  0  0  0  0  0  0  0  0
   -2.3141    2.8119    0.0000 C   0  0  0  0  0  0  0  0  0  0  0  0
   -3.0122    2.3723    0.0000 C   0  0  1  0  0  0  0  0  0  0  0  0
   -2.9799    1.5578    0.0000 O   0  0  0  0  0  0  0  0  0  0  0  0
   -3.7491    2.7537    0.0000 C   0  0  0  0  0  0  0  0  0  0  0  0
   -4.4472    2.3141    0.0000 C   0  0  1  0  0  0  0  0  0  0  0  0
   -4.4149    1.4996    0.0000 O   0  0  0  0  0  0  0  0  0  0  0  0
   -5.1841    2.6955    0.0000 C   0  0  0  0  0  0  0  0  0  0  0  0
   -5.8822    2.2559    0.0000 C   0  0  0  0  0  0  0  0  0  0  0  0
   -5.8499    1.4415    0.0000 O   0  0  0  0  0  0  0  0  0  0  0  0
   -6.6191    2.6373    0.0000 O   0  0  0  0  0  0  0  0  0  0  0  0
  1  2  2  0  0  0  0
  2  3  1  0  0  0  0
  2  4  1  0  0  0  0
  5  3  1  6  0  0  0
  4  6  1  0  0  0  0
  4  7  1  1  0  0  0
  5  8  1  0  0  0  0
  5  9  1  0  0  0  0
  6 10  1  0  0  0  0
  8 11  1  6  0  0  0
  8 12  1  0  0  0  0
  9 13  1  0  0  0  0
 11 14  1  0  0  0  0
 11 15  2  0  0  0  0
 12 16  1  0  0  0  0
 12 17  1  1  0  0  0
 13 18  1  1  0  0  0
 14 19  2  0  0  0  0
 16 20  1  1  0  0  0
 17 21  1  0  0  0  0
 21 22  1  0  0  0  0
 22 23  1  1  0  0  0
 22 24  1  0  0  0  0
 24 25  1  0  0  0  0
 25 26  1  1  0  0  0
 25 27  1  0  0  0  0
 27 28  1  0  0  0  0
 28 29  2  0  0  0  0
 28 30  1  0  0  0  0
 13 15  1  0  0  0  0
 16 19  1  0  0  0  0
M  END

>  <name>
Pravastatin

>  <ROTATABLE_BONDCOUNT>
11

>  <HBDScore>
0.0

>  <dipole>
1.64

>  <logD>
-1.38

>  <MPOScore>
3.5390428571428574

>  <logDScore>
1.0

>  <MW>
424.534

>  <charge_dist(7.4)>
-1.00

>  <CNS>
FALSE

>  <ArRings>
0

>  <HBD>
4

>  <BALABAN_INDEX>
1.96

>  <bpKa>
-2.72

>  <TPSAScore>
0.0

>  <MWScore>
0.5390428571428572

>  <bpKaScore>
1.0

>  <logPScore>
1.0

>  <MPO_area>
42.32

>  <TPSA>
124.29

>  <logP>
1.65

$$$$

  Mrv1722703221715202D          

 19 20  0  0  0  0            999 V2000
    0.0000    0.0000    0.0000 O   0  0  0  0  0  0  0  0  0  0  0  0
    0.3977   -0.7171    0.0000 C   0  0  0  0  0  0  0  0  0  0  0  0
    0.4172    0.7171    0.0000 C   0  0  0  0  0  0  0  0  0  0  0  0
   -0.0326   -1.4210    0.0000 C   0  0  0  0  0  0  0  0  0  0  0  0
    1.2189   -0.7171    0.0000 C   0  0  0  0  0  0  0  0  0  0  0  0
    0.3651   -2.1381    0.0000 C   0  0  0  0  0  0  0  0  0  0  0  0
    1.6166   -1.4341    0.0000 C   0  0  0  0  0  0  0  0  0  0  0  0
   -0.0652   -2.8420    0.0000 N   0  0  0  0  0  0  0  0  0  0  0  0
    1.1864   -2.1381    0.0000 C   0  0  0  0  0  0  0  0  0  0  0  0
    2.4379   -1.4341    0.0000 C   0  0  0  0  0  0  0  0  0  0  0  0
   -0.8995   -2.8291    0.0000 C   0  0  2  0  0  0  0  0  0  0  0  0
    1.5840   -2.8551    0.0000 N   0  0  0  0  0  0  0  0  0  0  0  0
    2.8355   -2.1511    0.0000 C   0  0  0  0  0  0  0  0  0  0  0  0
   -1.3102   -2.0989    0.0000 C   0  0  0  0  0  0  0  0  0  0  0  0
   -1.3298   -3.5330    0.0000 C   0  0  0  0  0  0  0  0  0  0  0  0
    2.4054   -2.8551    0.0000 C   0  0  0  0  0  0  0  0  0  0  0  0
   -2.1446   -2.0859    0.0000 C   0  0  0  0  0  0  0  0  0  0  0  0
   -2.5552   -1.3558    0.0000 C   0  0  0  0  0  0  0  0  0  0  0  0
   -3.3896   -1.3428    0.0000 N   0  0  0  0  0  0  0  0  0  0  0  0
  1  2  1  0  0  0  0
  1  3  1  0  0  0  0
  2  4  2  0  0  0  0
  2  5  1  0  0  0  0
  4  6  1  0  0  0  0
  5  7  2  0  0  0  0
  6  8  1  0  0  0  0
  6  9  2  0  0  0  0
  7 10  1  0  0  0  0
 11  8  1  1  0  0  0
  9 12  1  0  0  0  0
 10 13  2  0  0  0  0
 11 14  1  0  0  0  0
 11 15  1  0  0  0  0
 12 16  2  0  0  0  0
 14 17  1  0  0  0  0
 17 18  1  0  0  0  0
 18 19  1  0  0  0  0
  7  9  1  0  0  0  0
 13 16  1  0  0  0  0
M  END

>  <name>
Primaquine

>  <ROTATABLE_BONDCOUNT>
6

>  <HBDScore>
0.5

>  <dipole>
6.86

>  <logD>
-0.96

>  <MPOScore>
4.5

>  <logDScore>
1.0

>  <MW>
259.353

>  <charge_dist(7.4)>
1.00

>  <CNS>
FALSE

>  <ArRings>
2

>  <HBD>
2

>  <BALABAN_INDEX>
1.72

>  <bpKa>
10.2

>  <TPSAScore>
1.0

>  <MWScore>
1.0

>  <bpKaScore>
0.0

>  <logPScore>
1.0

>  <MPO_area>
58.33

>  <TPSA>
60.17

>  <logP>
1.64

$$$$

  Mrv1722703221715202D          

 19 19  0  0  0  0            999 V2000
    0.0000    0.0000    0.0000 S   0  0  0  0  0  0  0  0  0  0  0  0
   -0.0065   -0.8176    0.0000 O   0  0  0  0  0  0  0  0  0  0  0  0
   -0.0065    0.8306    0.0000 O   0  0  0  0  0  0  0  0  0  0  0  0
    0.8176    0.0065    0.0000 N   0  0  0  0  0  0  0  0  0  0  0  0
   -0.8306    0.0065    0.0000 C   0  0  0  0  0  0  0  0  0  0  0  0
    1.2199    0.7267    0.0000 C   0  0  0  0  0  0  0  0  0  0  0  0
    1.2199   -0.7008    0.0000 C   0  0  0  0  0  0  0  0  0  0  0  0
   -1.2458   -0.7008    0.0000 C   0  0  0  0  0  0  0  0  0  0  0  0
   -1.2458    0.7267    0.0000 C   0  0  0  0  0  0  0  0  0  0  0  0
    2.0374    0.7332    0.0000 C   0  0  0  0  0  0  0  0  0  0  0  0
    2.0374   -0.6943    0.0000 C   0  0  0  0  0  0  0  0  0  0  0  0
   -2.0764   -0.6943    0.0000 C   0  0  0  0  0  0  0  0  0  0  0  0
   -2.0764    0.7332    0.0000 C   0  0  0  0  0  0  0  0  0  0  0  0
    2.4398    1.4535    0.0000 C   0  0  0  0  0  0  0  0  0  0  0  0
    2.4398   -1.4016    0.0000 C   0  0  0  0  0  0  0  0  0  0  0  0
   -2.4917    0.0259    0.0000 C   0  0  0  0  0  0  0  0  0  0  0  0
   -3.3222    0.0325    0.0000 C   0  0  0  0  0  0  0  0  0  0  0  0
   -3.7375   -0.6748    0.0000 O   0  0  0  0  0  0  0  0  0  0  0  0
   -3.7375    0.7527    0.0000 O   0  0  0  0  0  0  0  0  0  0  0  0
  1  2  2  0  0  0  0
  1  3  2  0  0  0  0
  1  4  1  0  0  0  0
  1  5  1  0  0  0  0
  4  6  1  0  0  0  0
  4  7  1  0  0  0  0
  5  8  2  0  0  0  0
  5  9  1  0  0  0  0
  6 10  1  0  0  0  0
  7 11  1  0  0  0  0
  8 12  1  0  0  0  0
  9 13  2  0  0  0  0
 10 14  1  0  0  0  0
 11 15  1  0  0  0  0
 12 16  2  0  0  0  0
 16 17  1  0  0  0  0
 17 18  2  0  0  0  0
 17 19  1  0  0  0  0
 13 16  1  0  0  0  0
M  END

>  <name>
Probenecid

>  <ROTATABLE_BONDCOUNT>
6

>  <HBDScore>
0.8333333333333334

>  <dipole>
5.53

>  <logD>
-0.92

>  <MPOScore>
5.833333333333333

>  <logDScore>
1.0

>  <MW>
285.36

>  <charge_dist(7.4)>
-1.00

>  <CNS>
FALSE

>  <ArRings>
1

>  <HBD>
1

>  <BALABAN_INDEX>
2.47

>  <bpKa>
0.0

>  <TPSAScore>
1.0

>  <MWScore>
1.0

>  <bpKaScore>
1.0

>  <logPScore>
1.0

>  <MPO_area>
94.44

>  <TPSA>
74.68

>  <logP>
2.44

$$$$

  Mrv1722703221715202D          

 35 36  0  0  0  0            999 V2000
    0.0000    0.0000    0.0000 S   0  0  0  0  0  0  0  0  0  0  0  0
    0.7789    0.2533    0.0000 C   0  0  0  0  0  0  0  0  0  0  0  0
   -0.6142    0.5636    0.0000 C   0  0  0  0  0  0  0  0  0  0  0  0
    0.9561    1.0638    0.0000 C   0  0  0  0  0  0  0  0  0  0  0  0
    1.3804   -0.2976    0.0000 C   0  0  0  0  0  0  0  0  0  0  0  0
   -1.2284    1.1271    0.0000 S   0  0  0  0  0  0  0  0  0  0  0  0
   -0.0633    1.1778    0.0000 C   0  0  0  0  0  0  0  0  0  0  0  0
   -1.1778   -0.0380    0.0000 C   0  0  0  0  0  0  0  0  0  0  0  0
    1.7349    1.3171    0.0000 C   0  0  0  0  0  0  0  0  0  0  0  0
    2.1592   -0.0443    0.0000 C   0  0  0  0  0  0  0  0  0  0  0  0
   -2.0199    0.8865    0.0000 C   0  0  0  0  0  0  0  0  0  0  0  0
    2.3365    0.7662    0.0000 C   0  0  0  0  0  0  0  0  0  0  0  0
    1.9122    2.1275    0.0000 C   0  0  0  0  0  0  0  0  0  0  0  0
    2.7608   -0.5952    0.0000 C   0  0  0  0  0  0  0  0  0  0  0  0
   -2.2099    0.0886    0.0000 C   0  0  0  0  0  0  0  0  0  0  0  0
   -2.6341    1.4500    0.0000 C   0  0  0  0  0  0  0  0  0  0  0  0
    3.1154    1.0194    0.0000 O   0  0  0  0  0  0  0  0  0  0  0  0
    2.7101    1.9502    0.0000 C   0  0  0  0  0  0  0  0  0  0  0  0
    1.1018    2.3175    0.0000 C   0  0  0  0  0  0  0  0  0  0  0  0
    2.0895    2.9381    0.0000 C   0  0  0  0  0  0  0  0  0  0  0  0
    2.1972   -1.1967    0.0000 C   0  0  0  0  0  0  0  0  0  0  0  0
    3.3116    0.0190    0.0000 C   0  0  0  0  0  0  0  0  0  0  0  0
    3.3623   -1.1461    0.0000 C   0  0  0  0  0  0  0  0  0  0  0  0
   -3.0014   -0.1519    0.0000 C   0  0  0  0  0  0  0  0  0  0  0  0
   -3.4256    1.2094    0.0000 C   0  0  0  0  0  0  0  0  0  0  0  0
   -3.6156    0.4116    0.0000 C   0  0  0  0  0  0  0  0  0  0  0  0
   -3.1913   -0.9498    0.0000 C   0  0  0  0  0  0  0  0  0  0  0  0
   -4.0398    1.7729    0.0000 C   0  0  0  0  0  0  0  0  0  0  0  0
   -4.4071    0.1710    0.0000 O   0  0  0  0  0  0  0  0  0  0  0  0
   -4.0018   -0.7598    0.0000 C   0  0  0  0  0  0  0  0  0  0  0  0
   -2.3935   -1.1271    0.0000 C   0  0  0  0  0  0  0  0  0  0  0  0
   -3.3813   -1.7476    0.0000 C   0  0  0  0  0  0  0  0  0  0  0  0
   -4.6033    1.1714    0.0000 C   0  0  0  0  0  0  0  0  0  0  0  0
   -3.4889    2.3872    0.0000 C   0  0  0  0  0  0  0  0  0  0  0  0
   -4.6540    2.3365    0.0000 C   0  0  0  0  0  0  0  0  0  0  0  0
  1  2  1  0  0  0  0
  1  3  1  0  0  0  0
  2  4  2  0  0  0  0
  2  5  1  0  0  0  0
  3  6  1  0  0  0  0
  3  7  1  0  0  0  0
  3  8  1  0  0  0  0
  4  9  1  0  0  0  0
  5 10  2  0  0  0  0
  6 11  1  0  0  0  0
  9 12  2  0  0  0  0
  9 13  1  0  0  0  0
 10 14  1  0  0  0  0
 11 15  2  0  0  0  0
 11 16  1  0  0  0  0
 12 17  1  0  0  0  0
 13 18  1  0  0  0  0
 13 19  1  0  0  0  0
 13 20  1  0  0  0  0
 14 21  1  0  0  0  0
 14 22  1  0  0  0  0
 14 23  1  0  0  0  0
 15 24  1  0  0  0  0
 16 25  2  0  0  0  0
 24 26  2  0  0  0  0
 24 27  1  0  0  0  0
 25 28  1  0  0  0  0
 26 29  1  0  0  0  0
 27 30  1  0  0  0  0
 27 31  1  0  0  0  0
 27 32  1  0  0  0  0
 28 33  1  0  0  0  0
 28 34  1  0  0  0  0
 28 35  1  0  0  0  0
 10 12  1  0  0  0  0
 25 26  1  0  0  0  0
M  END

>  <name>
Probucol

>  <ROTATABLE_BONDCOUNT>
8

>  <HBDScore>
0.5

>  <dipole>
3.01

>  <logD>
10.57

>  <MPOScore>
2.5

>  <logDScore>
0.0

>  <MW>
516.84

>  <charge_dist(7.4)>
-0.00

>  <CNS>
FALSE

>  <ArRings>
2

>  <HBD>
2

>  <BALABAN_INDEX>
2.22

>  <bpKa>
-5.08

>  <TPSAScore>
1.0

>  <MWScore>
0.0

>  <bpKaScore>
1.0

>  <logPScore>
0.0

>  <MPO_area>
25.0

>  <TPSA>
40.46

>  <logP>
10.57

$$$$

  Mrv1722703221715202D          

 17 17  0  0  0  0            999 V2000
    0.0000    0.0000    0.0000 Cl  0  0  0  0  0  0  0  0  0  0  0  0
    0.5122    0.6467    0.0000 C   0  0  0  0  0  0  0  0  0  0  0  0
    0.2113    1.4215    0.0000 C   0  0  0  0  0  0  0  0  0  0  0  0
    1.3191    0.5251    0.0000 C   0  0  0  0  0  0  0  0  0  0  0  0
    0.7236    2.0682    0.0000 C   0  0  0  0  0  0  0  0  0  0  0  0
    1.8313    1.1718    0.0000 C   0  0  0  0  0  0  0  0  0  0  0  0
    1.5304    1.9466    0.0000 C   0  0  0  0  0  0  0  0  0  0  0  0
    2.0427    2.5934    0.0000 N   0  0  0  0  0  0  0  0  0  0  0  0
    2.8495    2.4717    0.0000 C   0  0  0  0  0  0  0  0  0  0  0  0
    3.1376    1.7097    0.0000 N   0  0  0  0  0  0  0  0  0  0  0  0
    3.3617    3.1184    0.0000 N   0  0  0  0  0  0  0  0  0  0  0  0
    3.9444    1.5880    0.0000 C   0  0  0  0  0  0  0  0  0  0  0  0
    4.2326    0.8260    0.0000 N   0  0  0  0  0  0  0  0  0  0  0  0
    4.4567    2.2347    0.0000 N   0  0  0  0  0  0  0  0  0  0  0  0
    5.0394    0.7044    0.0000 C   0  0  0  0  0  0  0  0  0  0  0  0
    5.3276   -0.0577    0.0000 C   0  0  0  0  0  0  0  0  0  0  0  0
    5.5517    1.3511    0.0000 C   0  0  0  0  0  0  0  0  0  0  0  0
  1  2  1  0  0  0  0
  2  3  2  0  0  0  0
  2  4  1  0  0  0  0
  3  5  1  0  0  0  0
  4  6  2  0  0  0  0
  5  7  2  0  0  0  0
  7  8  1  0  0  0  0
  8  9  1  0  0  0  0
  9 10  2  0  0  0  0
  9 11  1  0  0  0  0
 10 12  1  0  0  0  0
 12 13  2  0  0  0  0
 12 14  1  0  0  0  0
 13 15  1  0  0  0  0
 15 16  1  0  0  0  0
 15 17  1  0  0  0  0
  6  7  1  0  0  0  0
M  END

>  <name>
Proguanil

>  <ROTATABLE_BONDCOUNT>
2

>  <HBDScore>
0.16666666666666674

>  <dipole>
4.95

>  <logD>
-0.27

>  <MPOScore>
4.166666666666667

>  <logDScore>
1.0

>  <MW>
253.73

>  <charge_dist(7.4)>
1.00

>  <CNS>
FALSE

>  <ArRings>
1

>  <HBD>
3

>  <BALABAN_INDEX>
2.05

>  <bpKa>
10.12

>  <TPSAScore>
1.0

>  <MWScore>
1.0

>  <bpKaScore>
0.0

>  <logPScore>
1.0

>  <MPO_area>
52.78

>  <TPSA>
88.79

>  <logP>
1.89

$$$$

  Mrv1722703221715202D          

 27 29  0  0  0  0            999 V2000
    0.0000    0.0000    0.0000 O   0  0  0  0  0  0  0  0  0  0  0  0
    0.0714    0.8312    0.0000 C   0  0  0  0  0  0  0  0  0  0  0  0
   -0.6104    1.3182    0.0000 O   0  0  0  0  0  0  0  0  0  0  0  0
    0.8182    1.1819    0.0000 C   0  0  0  0  0  0  0  0  0  0  0  0
   -1.3702    0.9806    0.0000 C   0  0  0  0  0  0  0  0  0  0  0  0
    1.4871    0.7078    0.0000 C   0  0  0  0  0  0  0  0  0  0  0  0
    0.8897    2.0131    0.0000 C   0  0  0  0  0  0  0  0  0  0  0  0
   -2.0520    1.4676    0.0000 C   0  0  0  0  0  0  0  0  0  0  0  0
    2.2338    1.0585    0.0000 C   0  0  0  0  0  0  0  0  0  0  0  0
    1.4026   -0.1104    0.0000 C   0  0  0  0  0  0  0  0  0  0  0  0
    1.6364    2.3637    0.0000 C   0  0  0  0  0  0  0  0  0  0  0  0
    0.2078    2.5001    0.0000 C   0  0  0  0  0  0  0  0  0  0  0  0
   -2.8118    1.1299    0.0000 N   0  3  0  0  0  0  0  0  0  0  0  0
    2.3053    1.8897    0.0000 O   0  0  0  0  0  0  0  0  0  0  0  0
    2.9027    0.5844    0.0000 C   0  0  0  0  0  0  0  0  0  0  0  0
    2.0715   -0.5844    0.0000 C   0  0  0  0  0  0  0  0  0  0  0  0
    1.7078    3.1949    0.0000 C   0  0  0  0  0  0  0  0  0  0  0  0
    0.2792    3.3313    0.0000 C   0  0  0  0  0  0  0  0  0  0  0  0
   -2.4741    0.3831    0.0000 C   0  0  0  0  0  0  0  0  0  0  0  0
   -3.1624    1.8897    0.0000 C   0  0  0  0  0  0  0  0  0  0  0  0
   -3.5715    0.7922    0.0000 C   0  0  0  0  0  0  0  0  0  0  0  0
    2.8182   -0.2338    0.0000 C   0  0  0  0  0  0  0  0  0  0  0  0
    1.0260    3.6819    0.0000 C   0  0  0  0  0  0  0  0  0  0  0  0
   -2.9611   -0.2857    0.0000 C   0  0  0  0  0  0  0  0  0  0  0  0
   -1.6559    0.3117    0.0000 C   0  0  0  0  0  0  0  0  0  0  0  0
   -3.9936    1.9741    0.0000 C   0  0  0  0  0  0  0  0  0  0  0  0
   -2.6884    2.5715    0.0000 C   0  0  0  0  0  0  0  0  0  0  0  0
  1  2  2  0  0  0  0
  2  3  1  0  0  0  0
  2  4  1  0  0  0  0
  3  5  1  0  0  0  0
  4  6  1  0  0  0  0
  4  7  1  0  0  0  0
  5  8  1  0  0  0  0
  6  9  2  0  0  0  0
  6 10  1  0  0  0  0
  7 11  2  0  0  0  0
  7 12  1  0  0  0  0
  8 13  1  0  0  0  0
  9 14  1  0  0  0  0
  9 15  1  0  0  0  0
 10 16  2  0  0  0  0
 11 17  1  0  0  0  0
 12 18  2  0  0  0  0
 13 19  1  0  0  0  0
 13 20  1  0  0  0  0
 13 21  1  0  0  0  0
 15 22  2  0  0  0  0
 17 23  2  0  0  0  0
 19 24  1  0  0  0  0
 19 25  1  0  0  0  0
 20 26  1  0  0  0  0
 20 27  1  0  0  0  0
 11 14  1  0  0  0  0
 16 22  1  0  0  0  0
 18 23  1  0  0  0  0
M  CHG  1  13   1
M  END

>  <name>
Propantheline

>  <ROTATABLE_BONDCOUNT>
7

>  <HBDScore>
1.0

>  <dipole>
15.88

>  <logD>
0.36

>  <MPOScore>
5.715814285714286

>  <logDScore>
1.0

>  <MW>
368.496

>  <charge_dist(7.4)>
-0.00

>  <CNS>
FALSE

>  <ArRings>
2

>  <HBD>
0

>  <BALABAN_INDEX>
1.59

>  <bpKa>
-3.71

>  <TPSAScore>
0.7765000000000001

>  <MWScore>
0.9393142857142859

>  <bpKaScore>
1.0

>  <logPScore>
1.0

>  <MPO_area>
90.75

>  <TPSA>
35.53

>  <logP>
0.36

$$$$

  Mrv1722703221715202D          

 11 11  0  0  0  0            999 V2000
    0.0000    0.0000    0.0000 S   0  0  0  0  0  0  0  0  0  0  0  0
   -0.5950    0.5825    0.0000 C   0  0  0  0  0  0  0  0  0  0  0  0
   -0.3946    1.3843    0.0000 N   0  0  0  0  0  0  0  0  0  0  0  0
   -1.3906    0.3696    0.0000 N   0  0  0  0  0  0  0  0  0  0  0  0
   -0.9897    1.9668    0.0000 C   0  0  0  0  0  0  0  0  0  0  0  0
   -1.9856    0.9521    0.0000 C   0  0  0  0  0  0  0  0  0  0  0  0
   -0.7893    2.7686    0.0000 O   0  0  0  0  0  0  0  0  0  0  0  0
   -1.7852    1.7539    0.0000 C   0  0  0  0  0  0  0  0  0  0  0  0
   -2.7811    0.7391    0.0000 C   0  0  0  0  0  0  0  0  0  0  0  0
   -3.3762    1.3217    0.0000 C   0  0  0  0  0  0  0  0  0  0  0  0
   -4.1717    1.1087    0.0000 C   0  0  0  0  0  0  0  0  0  0  0  0
  1  2  2  0  0  0  0
  2  3  1  0  0  0  0
  2  4  1  0  0  0  0
  3  5  1  0  0  0  0
  4  6  1  0  0  0  0
  5  7  2  0  0  0  0
  5  8  1  0  0  0  0
  6  9  1  0  0  0  0
  9 10  1  0  0  0  0
 10 11  1  0  0  0  0
  6  8  2  0  0  0  0
M  END

>  <name>
Propylthiouracil

>  <ROTATABLE_BONDCOUNT>
2

>  <HBDScore>
0.5

>  <dipole>
7.31

>  <logD>
1.12

>  <MPOScore>
5.5

>  <logDScore>
1.0

>  <MW>
170.23

>  <charge_dist(7.4)>
-0.17

>  <CNS>
FALSE

>  <ArRings>
1

>  <HBD>
2

>  <BALABAN_INDEX>
2.09

>  <bpKa>
-2.92

>  <TPSAScore>
1.0

>  <MWScore>
1.0

>  <bpKaScore>
1.0

>  <logPScore>
1.0

>  <MPO_area>
83.33

>  <TPSA>
41.13

>  <logP>
1.20

$$$$

  Mrv1722703221715202D          

 24 26  0  0  0  0            999 V2000
    0.0000    0.0000    0.0000 O   0  0  0  0  0  0  0  0  0  0  0  0
    0.8163    0.1175    0.0000 C   0  0  0  0  0  0  0  0  0  0  0  0
   -0.1567   -0.8098    0.0000 C   0  0  0  0  0  0  0  0  0  0  0  0
    1.1690   -0.6269    0.0000 C   0  0  0  0  0  0  0  0  0  0  0  0
    1.2800    0.8098    0.0000 C   0  0  0  0  0  0  0  0  0  0  0  0
    0.5682   -1.2016    0.0000 O   0  0  0  0  0  0  0  0  0  0  0  0
    1.9919   -0.6857    0.0000 C   0  0  0  0  0  0  0  0  0  0  0  0
    2.1029    0.7510    0.0000 C   0  0  0  0  0  0  0  0  0  0  0  0
    2.4556    0.0065    0.0000 C   0  0  0  0  0  0  0  0  0  0  0  0
    2.5666    1.4433    0.0000 C   0  0  0  0  0  0  0  0  0  0  0  0
    3.3895    1.3845    0.0000 C   0  0  0  0  0  0  0  0  0  0  0  0
    3.7422    0.6400    0.0000 N   0  0  0  0  0  0  0  0  0  0  0  0
    3.8532    2.0768    0.0000 C   0  0  0  0  0  0  0  0  0  0  0  0
    4.5651    0.5813    0.0000 C   0  0  0  0  0  0  0  0  0  0  0  0
    4.9177   -0.1633    0.0000 C   0  0  0  0  0  0  0  0  0  0  0  0
    4.4410   -0.8425    0.0000 O   0  0  0  0  0  0  0  0  0  0  0  0
    5.7406   -0.2221    0.0000 C   0  0  0  0  0  0  0  0  0  0  0  0
    6.2043    0.4702    0.0000 C   0  0  0  0  0  0  0  0  0  0  0  0
    6.0933   -0.9666    0.0000 C   0  0  0  0  0  0  0  0  0  0  0  0
    7.0272    0.4115    0.0000 C   0  0  0  0  0  0  0  0  0  0  0  0
    6.9161   -1.0253    0.0000 C   0  0  0  0  0  0  0  0  0  0  0  0
    7.4908    1.1037    0.0000 O   0  0  0  0  0  0  0  0  0  0  0  0
    7.3798   -0.3331    0.0000 C   0  0  0  0  0  0  0  0  0  0  0  0
    8.2027   -0.3919    0.0000 O   0  0  0  0  0  0  0  0  0  0  0  0
  1  2  1  0  0  0  0
  1  3  1  0  0  0  0
  2  4  2  0  0  0  0
  2  5  1  0  0  0  0
  3  6  1  0  0  0  0
  4  7  1  0  0  0  0
  5  8  2  0  0  0  0
  7  9  2  0  0  0  0
  8 10  1  0  0  0  0
 10 11  1  0  0  0  0
 11 12  1  0  0  0  0
 11 13  1  0  0  0  0
 12 14  1  0  0  0  0
 14 15  1  0  0  0  0
 15 16  1  0  0  0  0
 15 17  1  0  0  0  0
 17 18  2  0  0  0  0
 17 19  1  0  0  0  0
 18 20  1  0  0  0  0
 19 21  2  0  0  0  0
 20 22  1  0  0  0  0
 20 23  2  0  0  0  0
 23 24  1  0  0  0  0
  4  6  1  0  0  0  0
  8  9  1  0  0  0  0
 21 23  1  0  0  0  0
M  END

>  <name>
Protokylol

>  <ROTATABLE_BONDCOUNT>
6

>  <HBDScore>
0.0

>  <dipole>
2.09

>  <logD>
0.24

>  <MPOScore>
4.470666666666666

>  <logDScore>
1.0

>  <MW>
331.368

>  <charge_dist(7.4)>
0.97

>  <CNS>
FALSE

>  <ArRings>
2

>  <HBD>
4

>  <BALABAN_INDEX>
1.25

>  <bpKa>
8.98

>  <TPSAScore>
0.9606666666666664

>  <MWScore>
1.0

>  <bpKaScore>
0.5099999999999998

>  <logPScore>
1.0

>  <MPO_area>
57.51

>  <TPSA>
91.18

>  <logP>
1.48

$$$$

  Mrv1722703221715202D          

 13 13  0  0  0  0            999 V2000
    0.0000    0.0000    0.0000 O   0  0  0  0  0  0  0  0  0  0  0  0
   -0.1286   -0.8101    0.0000 C   0  0  0  0  0  0  0  0  0  0  0  0
    0.5079   -1.3180    0.0000 O   0  0  0  0  0  0  0  0  0  0  0  0
   -0.9066   -1.1059    0.0000 N   0  0  0  0  0  0  0  0  0  0  0  0
    1.2730   -1.0094    0.0000 C   0  0  0  0  0  0  0  0  0  0  0  0
   -1.5560   -0.5851    0.0000 C   0  0  0  0  0  0  0  0  0  0  0  0
   -1.0351   -1.9160    0.0000 C   0  0  0  0  0  0  0  0  0  0  0  0
    1.9095   -1.5173    0.0000 C   0  0  0  0  0  0  0  0  0  0  0  0
    1.3888   -0.1864    0.0000 C   0  0  0  0  0  0  0  0  0  0  0  0
    2.6747   -1.2087    0.0000 N   0  3  0  0  0  0  0  0  0  0  0  0
    2.1539    0.1221    0.0000 C   0  0  0  0  0  0  0  0  0  0  0  0
    2.7904   -0.3858    0.0000 C   0  0  0  0  0  0  0  0  0  0  0  0
    3.3112   -1.7167    0.0000 C   0  0  0  0  0  0  0  0  0  0  0  0
  1  2  2  0  0  0  0
  2  3  1  0  0  0  0
  2  4  1  0  0  0  0
  3  5  1  0  0  0  0
  4  6  1  0  0  0  0
  4  7  1  0  0  0  0
  5  8  2  0  0  0  0
  5  9  1  0  0  0  0
  8 10  1  0  0  0  0
  9 11  2  0  0  0  0
 10 12  2  0  0  0  0
 10 13  1  0  0  0  0
 11 12  1  0  0  0  0
M  CHG  1  10   1
M  END

>  <name>
Pyridostigmine

>  <ROTATABLE_BONDCOUNT>
2

>  <HBDScore>
1.0

>  <dipole>
6.72

>  <logD>
-3.47

>  <MPOScore>
5.671

>  <logDScore>
1.0

>  <MW>
181.214

>  <charge_dist(7.4)>
1.00

>  <CNS>
FALSE

>  <ArRings>
1

>  <HBD>
0

>  <BALABAN_INDEX>
2.10

>  <bpKa>
0.0

>  <TPSAScore>
0.6710000000000002

>  <MWScore>
1.0

>  <bpKaScore>
1.0

>  <logPScore>
1.0

>  <MPO_area>
89.03

>  <TPSA>
33.42

>  <logP>
-3.47

$$$$

  Mrv1722703221715202D          

 27 31  0  0  0  0            999 V2000
    0.0000    0.0000    0.0000 O   0  0  0  0  0  0  0  0  0  0  0  0
    0.8175    0.1112    0.0000 C   0  0  0  0  0  0  0  0  0  0  0  0
   -0.5101    0.6670    0.0000 C   0  0  0  0  0  0  0  0  0  0  0  0
    1.1314    0.8829    0.0000 C   0  0  0  0  0  0  0  0  0  0  0  0
    1.3145   -0.5428    0.0000 C   0  0  0  0  0  0  0  0  0  0  0  0
   -1.3472    0.6540    0.0000 C   0  0  0  0  0  0  0  0  0  0  0  0
   -0.2812    1.4714    0.0000 C   0  0  0  0  0  0  0  0  0  0  0  0
    1.9489    0.9940    0.0000 C   0  0  0  0  0  0  0  0  0  0  0  0
    2.1319   -0.4316    0.0000 C   0  0  0  0  0  0  0  0  0  0  0  0
   -1.6284    1.4453    0.0000 C   0  0  0  0  0  0  0  0  0  0  0  0
   -0.9744    1.9489    0.0000 C   0  0  0  0  0  0  0  0  0  0  0  0
    2.4459    0.3401    0.0000 C   0  0  0  0  0  0  0  0  0  0  0  0
    2.2628    1.7657    0.0000 C   0  0  0  0  0  0  0  0  0  0  0  0
    3.2633    0.4513    0.0000 C   0  0  2  0  0  0  0  0  0  0  0  0
    3.0802    1.8769    0.0000 C   0  0  0  0  0  0  0  0  0  0  0  0
    3.5772    1.2230    0.0000 C   0  0  1  0  0  0  0  0  0  0  0  0
    3.7604   -0.2027    0.0000 C   0  0  0  0  0  0  0  0  0  0  0  0
    4.3947    1.3341    0.0000 C   0  0  1  0  0  0  0  0  0  0  0  0
    4.5778   -0.0916    0.0000 C   0  0  0  0  0  0  0  0  0  0  0  0
    4.8918    0.6801    0.0000 C   0  0  2  0  0  0  0  0  0  0  0  0
    4.8591    2.0273    0.0000 C   0  0  0  0  0  0  0  0  0  0  0  0
    5.6700    0.9613    0.0000 C   0  0  2  0  0  0  0  0  0  0  0  0
    5.3757    0.0196    0.0000 C   0  0  0  0  0  0  0  0  0  0  0  0
    5.6504    1.7984    0.0000 C   0  0  0  0  0  0  0  0  0  0  0  0
    5.9512    0.1897    0.0000 O   0  0  0  0  0  0  0  0  0  0  0  0
    6.4874    1.0725    0.0000 C   0  0  0  0  0  0  0  0  0  0  0  0
    7.3049    1.1837    0.0000 C   0  0  0  0  0  0  0  0  0  0  0  0
  1  2  1  0  0  0  0
  1  3  1  0  0  0  0
  2  4  2  0  0  0  0
  2  5  1  0  0  0  0
  3  6  1  0  0  0  0
  3  7  1  0  0  0  0
  4  8  1  0  0  0  0
  5  9  2  0  0  0  0
  6 10  1  0  0  0  0
  7 11  1  0  0  0  0
  8 12  2  0  0  0  0
  8 13  1  0  0  0  0
 12 14  1  0  0  0  0
 13 15  1  0  0  0  0
 14 16  1  0  0  0  0
 14 17  1  6  0  0  0
 16 18  1  0  0  0  0
 17 19  1  0  0  0  0
 18 20  1  0  0  0  0
 18 21  1  6  0  0  0
 20 22  1  0  0  0  0
 20 23  1  6  0  0  0
 21 24  1  0  0  0  0
 22 25  1  6  0  0  0
 22 26  1  0  0  0  0
 26 27  3  0  0  0  0
  9 12  1  0  0  0  0
 10 11  1  0  0  0  0
 16 15  1  1  0  0  0
 19 20  1  0  0  0  0
 22 24  1  0  0  0  0
M  END

>  <name>
Quinestrol

>  <ROTATABLE_BONDCOUNT>
2

>  <HBDScore>
0.8333333333333334

>  <dipole>
5.08

>  <logD>
5.40

>  <MPOScore>
3.2739833333333337

>  <logDScore>
0.0

>  <MW>
364.529

>  <charge_dist(7.4)>
0.00

>  <CNS>
FALSE

>  <ArRings>
1

>  <HBD>
1

>  <BALABAN_INDEX>
1.22

>  <bpKa>
-1.66

>  <TPSAScore>
0.4730000000000001

>  <MWScore>
0.96765

>  <bpKaScore>
1.0

>  <logPScore>
0.0

>  <MPO_area>
36.14

>  <TPSA>
29.46

>  <logP>
5.40

$$$$

  Mrv1722703221715202D          

 18 19  0  0  0  0            999 V2000
    0.0000    0.0000    0.0000 Cl  0  0  0  0  0  0  0  0  0  0  0  0
    0.6230   -0.5331    0.0000 C   0  0  0  0  0  0  0  0  0  0  0  0
    0.4624   -1.3423    0.0000 C   0  0  0  0  0  0  0  0  0  0  0  0
    1.4001   -0.2505    0.0000 C   0  0  0  0  0  0  0  0  0  0  0  0
   -0.3276   -1.6120    0.0000 S   0  0  0  0  0  0  0  0  0  0  0  0
    1.0854   -1.8753    0.0000 C   0  0  0  0  0  0  0  0  0  0  0  0
    2.0230   -0.7835    0.0000 C   0  0  0  0  0  0  0  0  0  0  0  0
   -0.6101   -0.8221    0.0000 O   0  0  0  0  0  0  0  0  0  0  0  0
   -0.0578   -2.3891    0.0000 O   0  0  0  0  0  0  0  0  0  0  0  0
   -1.1175   -1.8817    0.0000 N   0  0  0  0  0  0  0  0  0  0  0  0
    1.8625   -1.5928    0.0000 C   0  0  0  0  0  0  0  0  0  0  0  0
    2.8002   -0.5009    0.0000 N   0  0  0  0  0  0  0  0  0  0  0  0
    2.4855   -2.1258    0.0000 C   0  0  0  0  0  0  0  0  0  0  0  0
    3.4231   -1.0340    0.0000 C   0  0  1  0  0  0  0  0  0  0  0  0
    2.3249   -2.9350    0.0000 O   0  0  0  0  0  0  0  0  0  0  0  0
    3.2626   -1.8432    0.0000 N   0  0  0  0  0  0  0  0  0  0  0  0
    4.2002   -0.7514    0.0000 C   0  0  0  0  0  0  0  0  0  0  0  0
    4.8232   -1.2845    0.0000 C   0  0  0  0  0  0  0  0  0  0  0  0
  1  2  1  0  0  0  0
  2  3  2  0  0  0  0
  2  4  1  0  0  0  0
  3  5  1  0  0  0  0
  3  6  1  0  0  0  0
  4  7  2  0  0  0  0
  5  8  2  0  0  0  0
  5  9  2  0  0  0  0
  5 10  1  0  0  0  0
  6 11  2  0  0  0  0
  7 12  1  0  0  0  0
 11 13  1  0  0  0  0
 12 14  1  0  0  0  0
 13 15  2  0  0  0  0
 13 16  1  0  0  0  0
 14 17  1  6  0  0  0
 17 18  1  0  0  0  0
  7 11  1  0  0  0  0
 14 16  1  0  0  0  0
M  END

>  <name>
Quinethazone

>  <ROTATABLE_BONDCOUNT>
2

>  <HBDScore>
0.16666666666666674

>  <dipole>
13.23

>  <logD>
1.18

>  <MPOScore>
4.790333333333334

>  <logDScore>
1.0

>  <MW>
289.73

>  <charge_dist(7.4)>
-0.01

>  <CNS>
FALSE

>  <ArRings>
1

>  <HBD>
3

>  <BALABAN_INDEX>
1.98

>  <bpKa>
-0.97

>  <TPSAScore>
0.6236666666666665

>  <MWScore>
1.0

>  <bpKaScore>
1.0

>  <logPScore>
1.0

>  <MPO_area>
64.9

>  <TPSA>
101.29

>  <logP>
1.19

$$$$

  Mrv1722703221715202D          

 24 27  0  0  0  0            999 V2000
    0.0000    0.0000    0.0000 O   0  0  0  0  0  0  0  0  0  0  0  0
   -0.2508    0.7926    0.0000 C   0  0  0  0  0  0  0  0  0  0  0  0
   -0.5719   -0.5920    0.0000 C   0  0  0  0  0  0  0  0  0  0  0  0
   -1.0535    0.9833    0.0000 C   0  0  0  0  0  0  0  0  0  0  0  0
    0.3010    1.4047    0.0000 C   0  0  0  0  0  0  0  0  0  0  0  0
   -1.3044    1.7759    0.0000 C   0  0  0  0  0  0  0  0  0  0  0  0
    0.0501    2.1973    0.0000 C   0  0  0  0  0  0  0  0  0  0  0  0
   -0.7525    2.3880    0.0000 C   0  0  0  0  0  0  0  0  0  0  0  0
   -2.1070    1.9666    0.0000 C   0  0  0  0  0  0  0  0  0  0  0  0
   -1.0034    3.1806    0.0000 N   0  0  0  0  0  0  0  0  0  0  0  0
   -2.3579    2.7592    0.0000 C   0  0  0  0  0  0  0  0  0  0  0  0
   -2.6789    1.3746    0.0000 C   0  0  2  0  0  0  0  0  0  0  0  0
   -1.8061    3.3712    0.0000 C   0  0  0  0  0  0  0  0  0  0  0  0
   -2.4482    0.6020    0.0000 O   0  0  0  0  0  0  0  0  0  0  0  0
   -3.4816    1.5652    0.0000 C   0  0  2  0  0  0  0  0  0  0  0  0
   -3.7325    2.3579    0.0000 N   0  0  0  0  0  0  0  0  0  0  0  0
   -4.0535    0.9732    0.0000 C   0  0  0  0  0  0  0  0  0  0  0  0
   -4.0234    2.0167    0.0000 C   0  0  0  0  0  0  0  0  0  0  0  0
   -4.5351    2.5485    0.0000 C   0  0  0  0  0  0  0  0  0  0  0  0
   -4.8562    1.1639    0.0000 C   0  0  1  0  0  0  0  0  0  0  0  0
   -4.5351    1.4849    0.0000 C   0  0  1  0  0  0  0  0  0  0  0  0
   -5.1070    1.9565    0.0000 C   0  0  0  0  0  0  0  0  0  0  0  0
   -3.8328    0.2208    0.0000 C   0  0  0  0  0  0  0  0  0  0  0  0
   -4.4047   -0.3713    0.0000 C   0  0  0  0  0  0  0  0  0  0  0  0
  1  2  1  0  0  0  0
  1  3  1  0  0  0  0
  2  4  2  0  0  0  0
  2  5  1  0  0  0  0
  4  6  1  0  0  0  0
  5  7  2  0  0  0  0
  6  8  2  0  0  0  0
  6  9  1  0  0  0  0
  8 10  1  0  0  0  0
  9 11  2  0  0  0  0
  9 12  1  0  0  0  0
 10 13  2  0  0  0  0
 12 14  1  6  0  0  0
 12 15  1  0  0  0  0
 15 16  1  1  0  0  0
 15 17  1  0  0  0  0
 16 18  1  0  0  0  0
 16 19  1  0  0  0  0
 20 17  1  6  0  0  0
 18 21  1  0  0  0  0
 19 22  1  0  0  0  0
 21 23  1  0  0  0  0
 23 24  2  0  0  0  0
  7  8  1  0  0  0  0
 11 13  1  0  0  0  0
 21 20  1  6  0  0  0
 20 22  1  0  0  0  0
M  END

>  <name>
Quinidine

>  <ROTATABLE_BONDCOUNT>
4

>  <HBDScore>
0.8333333333333334

>  <dipole>
7.53

>  <logD>
0.86

>  <MPOScore>
5.308333333333333

>  <logDScore>
1.0

>  <MW>
324.424

>  <charge_dist(7.4)>
0.98

>  <CNS>
FALSE

>  <ArRings>
2

>  <HBD>
1

>  <BALABAN_INDEX>
1.35

>  <bpKa>
9.05

>  <TPSAScore>
1.0

>  <MWScore>
1.0

>  <bpKaScore>
0.47499999999999964

>  <logPScore>
1.0

>  <MPO_area>
78.4

>  <TPSA>
45.59

>  <logP>
2.51

$$$$

  Mrv1722703221715202D          

 25 27  0  0  0  0            999 V2000
    0.0000    0.0000    0.0000 S   0  0  2  0  0  0  0  0  0  0  0  0
   -0.1229   -0.8083    0.0000 O   0  0  0  0  0  0  0  0  0  0  0  0
    0.7566    0.3104    0.0000 C   0  0  0  0  0  0  0  0  0  0  0  0
   -0.6531    0.5173    0.0000 C   0  0  0  0  0  0  0  0  0  0  0  0
    0.9505    1.1122    0.0000 N   0  0  0  0  0  0  0  0  0  0  0  0
    1.4484   -0.1229    0.0000 N   0  0  0  0  0  2  0  0  0  0  0  0
   -1.4226    0.2199    0.0000 C   0  0  0  0  0  0  0  0  0  0  0  0
    1.7653    1.1704    0.0000 C   0  0  0  0  0  0  0  0  0  0  0  0
    2.0757    0.4074    0.0000 C   0  0  0  0  0  0  0  0  0  0  0  0
   -1.5454   -0.5885    0.0000 N   0  0  0  0  0  0  0  0  0  0  0  0
   -2.0757    0.7372    0.0000 C   0  0  0  0  0  0  0  0  0  0  0  0
    2.2697    1.8235    0.0000 C   0  0  0  0  0  0  0  0  0  0  0  0
    2.8840    0.2975    0.0000 C   0  0  0  0  0  0  0  0  0  0  0  0
   -2.3150   -0.8859    0.0000 C   0  0  0  0  0  0  0  0  0  0  0  0
   -2.8452    0.4397    0.0000 C   0  0  0  0  0  0  0  0  0  0  0  0
   -1.9658    1.5584    0.0000 C   0  0  0  0  0  0  0  0  0  0  0  0
    3.0779    1.7136    0.0000 C   0  0  0  0  0  0  0  0  0  0  0  0
    3.3883    0.9505    0.0000 C   0  0  0  0  0  0  0  0  0  0  0  0
   -2.9680   -0.3686    0.0000 C   0  0  0  0  0  0  0  0  0  0  0  0
   -3.4983    0.9570    0.0000 O   0  0  0  0  0  0  0  0  0  0  0  0
   -4.2678    0.6596    0.0000 C   0  0  0  0  0  0  0  0  0  0  0  0
   -4.9208    1.1768    0.0000 C   0  0  0  0  0  0  0  0  0  0  0  0
   -5.6904    0.8794    0.0000 C   0  0  0  0  0  0  0  0  0  0  0  0
   -6.3434    1.3967    0.0000 O   0  0  0  0  0  0  0  0  0  0  0  0
   -7.1129    1.0993    0.0000 C   0  0  0  0  0  0  0  0  0  0  0  0
  1  2  2  0  0  0  0
  1  3  1  0  0  0  0
  1  4  1  1  0  0  0
  3  5  2  0  0  0  0
  3  6  1  0  0  0  0
  4  7  1  0  0  0  0
  5  8  1  0  0  0  0
  6  9  1  0  0  0  0
  7 10  2  0  0  0  0
  7 11  1  0  0  0  0
  8 12  2  0  0  0  0
  9 13  2  0  0  0  0
 10 14  1  0  0  0  0
 11 15  2  0  0  0  0
 11 16  1  0  0  0  0
 12 17  1  0  0  0  0
 13 18  1  0  0  0  0
 14 19  2  0  0  0  0
 15 20  1  0  0  0  0
 20 21  1  0  0  0  0
 21 22  1  0  0  0  0
 22 23  1  0  0  0  0
 23 24  1  0  0  0  0
 24 25  1  0  0  0  0
  8  9  1  0  0  0  0
 15 19  1  0  0  0  0
 17 18  2  0  0  0  0
M  RAD  1   6   2
M  END

>  <name>
Rabeprazole

>  <ROTATABLE_BONDCOUNT>
8

>  <HBDScore>
1.0

>  <logD>
2.31

>  <MPOScore>
5.845

>  <logDScore>
0.845

>  <MW>
358.44

>  <charge_dist(7.4)>
0.00

>  <CNS>
FALSE

>  <ArRings>
3

>  <HBD>
0

>  <BALABAN_INDEX>
1.28

>  <bpKa>
4.24

>  <TPSAScore>
1.0

>  <MWScore>
1.0

>  <bpKaScore>
1.0

>  <logPScore>
1.0

>  <MPO_area>
94.83

>  <TPSA>
74.20

>  <logP>
2.31

$$$$

  Mrv1722703221715202D          

 34 38  0  0  0  0            999 V2000
    0.0000    0.0000    0.0000 S   0  0  0  0  0  0  0  0  0  0  0  0
   -0.4325   -0.7036    0.0000 C   0  0  0  0  0  0  0  0  0  0  0  0
   -0.5487    0.6261    0.0000 C   0  0  0  0  0  0  0  0  0  0  0  0
   -0.1162   -1.4588    0.0000 C   0  0  0  0  0  0  0  0  0  0  0  0
   -1.2458   -0.5099    0.0000 C   0  0  0  0  0  0  0  0  0  0  0  0
   -1.3168    0.3098    0.0000 C   0  0  0  0  0  0  0  0  0  0  0  0
   -0.4583    1.4524    0.0000 C   0  0  0  0  0  0  0  0  0  0  0  0
    0.6972   -1.5556    0.0000 C   0  0  0  0  0  0  0  0  0  0  0  0
   -0.6197   -2.1108    0.0000 C   0  0  0  0  0  0  0  0  0  0  0  0
   -1.8719   -1.0457    0.0000 C   0  0  0  0  0  0  0  0  0  0  0  0
   -1.9817    0.8133    0.0000 C   0  0  0  0  0  0  0  0  0  0  0  0
   -1.1231    1.9559    0.0000 C   0  0  0  0  0  0  0  0  0  0  0  0
    1.0134   -2.3109    0.0000 C   0  0  0  0  0  0  0  0  0  0  0  0
   -0.3034   -2.8660    0.0000 C   0  0  0  0  0  0  0  0  0  0  0  0
   -1.7171   -1.8526    0.0000 O   0  0  0  0  0  0  0  0  0  0  0  0
   -2.6595   -0.7682    0.0000 C   0  0  0  0  0  0  0  0  0  0  0  0
   -1.8913    1.6396    0.0000 C   0  0  0  0  0  0  0  0  0  0  0  0
   -1.0328    2.7821    0.0000 O   0  0  0  0  0  0  0  0  0  0  0  0
    0.5099   -2.9629    0.0000 C   0  0  0  0  0  0  0  0  0  0  0  0
   -2.8273    0.0516    0.0000 C   0  0  0  0  0  0  0  0  0  0  0  0
   -3.2856   -1.3039    0.0000 C   0  0  0  0  0  0  0  0  0  0  0  0
    0.8262   -3.7181    0.0000 O   0  0  0  0  0  0  0  0  0  0  0  0
   -3.6148    0.3292    0.0000 C   0  0  0  0  0  0  0  0  0  0  0  0
   -4.0731   -1.0264    0.0000 C   0  0  0  0  0  0  0  0  0  0  0  0
   -4.2410   -0.2065    0.0000 C   0  0  0  0  0  0  0  0  0  0  0  0
   -5.0284    0.0710    0.0000 O   0  0  0  0  0  0  0  0  0  0  0  0
   -5.6546   -0.4648    0.0000 C   0  0  0  0  0  0  0  0  0  0  0  0
   -6.4421   -0.1872    0.0000 C   0  0  0  0  0  0  0  0  0  0  0  0
   -7.0682   -0.7230    0.0000 N   0  0  0  0  0  0  0  0  0  0  0  0
   -7.8557   -0.4454    0.0000 C   0  0  0  0  0  0  0  0  0  0  0  0
   -6.9133   -1.5298    0.0000 C   0  0  0  0  0  0  0  0  0  0  0  0
   -8.4819   -0.9812    0.0000 C   0  0  0  0  0  0  0  0  0  0  0  0
   -7.5394   -2.0656    0.0000 C   0  0  0  0  0  0  0  0  0  0  0  0
   -8.3270   -1.7880    0.0000 C   0  0  0  0  0  0  0  0  0  0  0  0
  1  2  1  0  0  0  0
  1  3  1  0  0  0  0
  2  4  1  0  0  0  0
  2  5  2  0  0  0  0
  3  6  2  0  0  0  0
  3  7  1  0  0  0  0
  4  8  2  0  0  0  0
  4  9  1  0  0  0  0
  5 10  1  0  0  0  0
  6 11  1  0  0  0  0
  7 12  2  0  0  0  0
  8 13  1  0  0  0  0
  9 14  2  0  0  0  0
 10 15  2  0  0  0  0
 10 16  1  0  0  0  0
 11 17  2  0  0  0  0
 12 18  1  0  0  0  0
 13 19  2  0  0  0  0
 16 20  2  0  0  0  0
 16 21  1  0  0  0  0
 19 22  1  0  0  0  0
 20 23  1  0  0  0  0
 21 24  2  0  0  0  0
 23 25  2  0  0  0  0
 25 26  1  0  0  0  0
 26 27  1  0  0  0  0
 27 28  1  0  0  0  0
 28 29  1  0  0  0  0
 29 30  1  0  0  0  0
 29 31  1  0  0  0  0
 30 32  1  0  0  0  0
 31 33  1  0  0  0  0
 32 34  1  0  0  0  0
  5  6  1  0  0  0  0
 12 17  1  0  0  0  0
 14 19  1  0  0  0  0
 24 25  1  0  0  0  0
 33 34  1  0  0  0  0
M  END

>  <name>
Raloxifene

>  <ROTATABLE_BONDCOUNT>
7

>  <HBDScore>
0.5

>  <dipole>
4.95

>  <logD>
5.34

>  <MPOScore>
2.6886428571428573

>  <logDScore>
0.0

>  <MW>
473.59

>  <charge_dist(7.4)>
0.74

>  <CNS>
FALSE

>  <ArRings>
4

>  <HBD>
2

>  <BALABAN_INDEX>
1.08

>  <bpKa>
7.95

>  <TPSAScore>
1.0

>  <MWScore>
0.18864285714285733

>  <bpKaScore>
1.0

>  <logPScore>
0.0

>  <MPO_area>
26.57

>  <TPSA>
70.00

>  <logP>
5.69

$$$$

  Mrv1722703221715202D          

 32 34  0  0  0  0            999 V2000
    0.0000    0.0000    0.0000 F   0  0  0  0  0  0  0  0  0  0  0  0
   -0.1412    0.8153    0.0000 C   0  0  0  0  0  0  0  0  0  0  0  0
   -0.9116    1.1106    0.0000 C   0  0  0  0  0  0  0  0  0  0  0  0
    0.4815    1.3417    0.0000 C   0  0  0  0  0  0  0  0  0  0  0  0
   -1.0528    1.9259    0.0000 C   0  0  0  0  0  0  0  0  0  0  0  0
    0.3402    2.1570    0.0000 C   0  0  0  0  0  0  0  0  0  0  0  0
   -0.4301    2.4523    0.0000 C   0  0  0  0  0  0  0  0  0  0  0  0
   -0.5713    3.2677    0.0000 C   0  0  0  0  0  0  0  0  0  0  0  0
   -1.3417    3.5629    0.0000 N   0  0  0  0  0  0  0  0  0  0  0  0
   -1.4829    4.3782    0.0000 C   0  0  0  0  0  0  0  0  0  0  0  0
   -0.8602    4.9047    0.0000 O   0  0  0  0  0  0  0  0  0  0  0  0
   -2.2533    4.6736    0.0000 C   0  0  0  0  0  0  0  0  0  0  0  0
   -2.8889    4.1600    0.0000 N   0  0  0  0  0  0  0  0  0  0  0  0
   -2.3946    5.4889    0.0000 C   0  0  0  0  0  0  0  0  0  0  0  0
   -3.6593    4.4553    0.0000 C   0  0  0  0  0  0  0  0  0  0  0  0
   -1.7719    6.0153    0.0000 O   0  0  0  0  0  0  0  0  0  0  0  0
   -3.1649    5.7842    0.0000 C   0  0  0  0  0  0  0  0  0  0  0  0
   -3.8005    5.2706    0.0000 N   0  0  0  0  0  0  0  0  0  0  0  0
   -4.2948    3.9417    0.0000 C   0  0  0  0  0  0  0  0  0  0  0  0
   -3.3062    6.5995    0.0000 O   0  0  0  0  0  0  0  0  0  0  0  0
   -4.5708    5.5659    0.0000 C   0  0  0  0  0  0  0  0  0  0  0  0
   -4.9303    3.4281    0.0000 N   0  0  0  0  0  0  0  0  0  0  0  0
   -3.7812    3.3190    0.0000 C   0  0  0  0  0  0  0  0  0  0  0  0
   -4.8212    4.5772    0.0000 C   0  0  0  0  0  0  0  0  0  0  0  0
   -4.8020    2.6257    0.0000 C   0  0  0  0  0  0  0  0  0  0  0  0
   -4.0444    2.3432    0.0000 O   0  0  0  0  0  0  0  0  0  0  0  0
   -5.4375    2.1121    0.0000 C   0  0  0  0  0  0  0  0  0  0  0  0
   -6.2335    2.3240    0.0000 O   0  0  0  0  0  0  0  0  0  0  0  0
   -5.3926    1.3032    0.0000 N   0  0  0  0  0  0  0  0  0  0  0  0
   -6.6765    1.6434    0.0000 C   0  0  0  0  0  0  0  0  0  0  0  0
   -6.1565    1.0143    0.0000 N   0  0  0  0  0  0  0  0  0  0  0  0
   -7.4983    1.5985    0.0000 C   0  0  0  0  0  0  0  0  0  0  0  0
  1  2  1  0  0  0  0
  2  3  2  0  0  0  0
  2  4  1  0  0  0  0
  3  5  1  0  0  0  0
  4  6  2  0  0  0  0
  5  7  2  0  0  0  0
  7  8  1  0  0  0  0
  8  9  1  0  0  0  0
  9 10  1  0  0  0  0
 10 11  2  0  0  0  0
 10 12  1  0  0  0  0
 12 13  1  0  0  0  0
 12 14  2  0  0  0  0
 13 15  2  0  0  0  0
 14 16  1  0  0  0  0
 14 17  1  0  0  0  0
 15 18  1  0  0  0  0
 15 19  1  0  0  0  0
 17 20  2  0  0  0  0
 18 21  1  0  0  0  0
 19 22  1  0  0  0  0
 19 23  1  0  0  0  0
 19 24  1  0  0  0  0
 22 25  1  0  0  0  0
 25 26  2  0  0  0  0
 25 27  1  0  0  0  0
 27 28  1  0  0  0  0
 27 29  2  0  0  0  0
 28 30  1  0  0  0  0
 29 31  1  0  0  0  0
 30 32  1  0  0  0  0
  6  7  1  0  0  0  0
 17 18  1  0  0  0  0
 30 31  2  0  0  0  0
M  END

>  <name>
Raltegravir

>  <ROTATABLE_BONDCOUNT>
6

>  <HBDScore>
0.16666666666666674

>  <dipole>
9.17

>  <logD>
-0.92

>  <MPOScore>
3.563645238095238

>  <logDScore>
1.0

>  <MW>
444.423

>  <charge_dist(7.4)>
-0.71

>  <CNS>
FALSE

>  <ArRings>
3

>  <HBD>
3

>  <BALABAN_INDEX>
1.51

>  <bpKa>
-1.73

>  <TPSAScore>
0.0

>  <MWScore>
0.3969785714285714

>  <bpKaScore>
1.0

>  <logPScore>
1.0

>  <MPO_area>
41.05

>  <TPSA>
150.02

>  <logP>
-0.39

$$$$

  Mrv1722703221715202D          

 31 33  0  0  0  0            999 V2000
    0.0000    0.0000    0.0000 O   0  0  0  0  0  0  0  0  0  0  0  0
    0.3468   -0.7321    0.0000 C   0  0  0  0  0  0  0  0  0  0  0  0
    1.1560   -0.7899    0.0000 N   0  0  0  0  0  0  0  0  0  0  0  0
   -0.1220   -1.3999    0.0000 C   0  0  0  0  0  0  0  0  0  0  0  0
    1.6119   -0.1092    0.0000 C   0  0  0  0  0  0  0  0  0  0  0  0
   -0.9440   -1.3293    0.0000 N   0  0  0  0  0  0  0  0  0  0  0  0
    1.2522    0.6357    0.0000 C   0  0  0  0  0  0  0  0  0  0  0  0
    2.4211   -0.1670    0.0000 C   0  0  0  0  0  0  0  0  0  0  0  0
   -1.3037   -0.5844    0.0000 C   0  0  0  0  0  0  0  0  0  0  0  0
   -1.4128   -1.9972    0.0000 C   0  0  0  0  0  0  0  0  0  0  0  0
    1.7082    1.3165    0.0000 C   0  0  0  0  0  0  0  0  0  0  0  0
    0.4303    0.7064    0.0000 C   0  0  0  0  0  0  0  0  0  0  0  0
    2.8770    0.5138    0.0000 C   0  0  0  0  0  0  0  0  0  0  0  0
    2.7678   -0.8991    0.0000 C   0  0  0  0  0  0  0  0  0  0  0  0
   -2.1256   -0.5138    0.0000 C   0  0  0  0  0  0  0  0  0  0  0  0
   -2.2348   -1.9266    0.0000 C   0  0  0  0  0  0  0  0  0  0  0  0
    2.5174    1.2587    0.0000 C   0  0  0  0  0  0  0  0  0  0  0  0
   -2.5944   -1.1816    0.0000 N   0  0  0  0  0  0  0  0  0  0  0  0
   -3.4164   -1.1110    0.0000 C   0  0  0  0  0  0  0  0  0  0  0  0
   -3.7761   -0.3660    0.0000 C   0  0  2  0  0  0  0  0  0  0  0  0
   -3.3201    0.3147    0.0000 O   0  0  0  0  0  0  0  0  0  0  0  0
   -4.5981   -0.2954    0.0000 C   0  0  0  0  0  0  0  0  0  0  0  0
   -4.9577    0.4495    0.0000 O   0  0  0  0  0  0  0  0  0  0  0  0
   -5.7797    0.5202    0.0000 C   0  0  0  0  0  0  0  0  0  0  0  0
   -6.2485   -0.1477    0.0000 C   0  0  0  0  0  0  0  0  0  0  0  0
   -6.1393    1.2651    0.0000 C   0  0  0  0  0  0  0  0  0  0  0  0
   -5.9017   -0.8798    0.0000 O   0  0  0  0  0  0  0  0  0  0  0  0
   -7.0705   -0.0771    0.0000 C   0  0  0  0  0  0  0  0  0  0  0  0
   -6.9613    1.3358    0.0000 C   0  0  0  0  0  0  0  0  0  0  0  0
   -6.3705   -1.5477    0.0000 C   0  0  0  0  0  0  0  0  0  0  0  0
   -7.4301    0.6679    0.0000 C   0  0  0  0  0  0  0  0  0  0  0  0
  1  2  2  0  0  0  0
  2  3  1  0  0  0  0
  2  4  1  0  0  0  0
  3  5  1  0  0  0  0
  4  6  1  0  0  0  0
  5  7  2  0  0  0  0
  5  8  1  0  0  0  0
  6  9  1  0  0  0  0
  6 10  1  0  0  0  0
  7 11  1  0  0  0  0
  7 12  1  0  0  0  0
  8 13  2  0  0  0  0
  8 14  1  0  0  0  0
  9 15  1  0  0  0  0
 10 16  1  0  0  0  0
 11 17  2  0  0  0  0
 15 18  1  0  0  0  0
 18 19  1  0  0  0  0
 19 20  1  0  0  0  0
 20 21  1  1  0  0  0
 20 22  1  0  0  0  0
 22 23  1  0  0  0  0
 23 24  1  0  0  0  0
 24 25  2  0  0  0  0
 24 26  1  0  0  0  0
 25 27  1  0  0  0  0
 25 28  1  0  0  0  0
 26 29  2  0  0  0  0
 27 30  1  0  0  0  0
 28 31  2  0  0  0  0
 13 17  1  0  0  0  0
 16 18  1  0  0  0  0
 29 31  1  0  0  0  0
M  END

>  <name>
Ranolazine

>  <ROTATABLE_BONDCOUNT>
9

>  <HBDScore>
0.5

>  <dipole>
3.21

>  <logD>
2.74

>  <MPOScore>
4.6475357142857145

>  <logDScore>
0.6299999999999999

>  <MW>
427.545

>  <charge_dist(7.4)>
0.18

>  <CNS>
FALSE

>  <ArRings>
2

>  <HBD>
2

>  <BALABAN_INDEX>
1.27

>  <bpKa>
6.77

>  <TPSAScore>
1.0

>  <MWScore>
0.5175357142857142

>  <bpKaScore>
1.0

>  <logPScore>
1.0

>  <MPO_area>
61.91

>  <TPSA>
74.27

>  <logP>
2.83

$$$$

  Mrv1722703221715202D          

 33 35  0  0  0  0            999 V2000
    0.0000    0.0000    0.0000 Cl  0  0  0  0  0  0  0  0  0  0  0  0
   -0.5052    0.6523    0.0000 C   0  0  0  0  0  0  0  0  0  0  0  0
   -0.2046    1.4198    0.0000 C   0  0  0  0  0  0  0  0  0  0  0  0
   -1.3239    0.5500    0.0000 C   0  0  0  0  0  0  0  0  0  0  0  0
   -0.7099    2.0721    0.0000 C   0  0  0  0  0  0  0  0  0  0  0  0
    0.6012    1.5349    0.0000 C   0  0  0  0  0  0  0  0  0  0  0  0
   -1.8291    1.2023    0.0000 C   0  0  0  0  0  0  0  0  0  0  0  0
   -1.5285    1.9698    0.0000 C   0  0  0  0  0  0  0  0  0  0  0  0
    1.4070    1.6500    0.0000 F   0  0  0  0  0  0  0  0  0  0  0  0
    0.4860    2.3535    0.0000 F   0  0  0  0  0  0  0  0  0  0  0  0
    0.7035    0.7291    0.0000 F   0  0  0  0  0  0  0  0  0  0  0  0
   -2.0338    2.6222    0.0000 N   0  0  0  0  0  0  0  0  0  0  0  0
   -2.8524    2.5198    0.0000 C   0  0  0  0  0  0  0  0  0  0  0  0
   -3.1657    1.7651    0.0000 O   0  0  0  0  0  0  0  0  0  0  0  0
   -3.3576    3.1722    0.0000 N   0  0  0  0  0  0  0  0  0  0  0  0
   -4.1763    3.0698    0.0000 C   0  0  0  0  0  0  0  0  0  0  0  0
   -4.6879    3.7222    0.0000 C   0  0  0  0  0  0  0  0  0  0  0  0
   -4.4960    2.3152    0.0000 C   0  0  0  0  0  0  0  0  0  0  0  0
   -4.3809    4.4897    0.0000 F   0  0  0  0  0  0  0  0  0  0  0  0
   -5.5065    3.6199    0.0000 C   0  0  0  0  0  0  0  0  0  0  0  0
   -5.3146    2.2128    0.0000 C   0  0  0  0  0  0  0  0  0  0  0  0
   -5.8199    2.8652    0.0000 C   0  0  0  0  0  0  0  0  0  0  0  0
   -6.6385    2.7629    0.0000 O   0  0  0  0  0  0  0  0  0  0  0  0
   -6.9519    2.0082    0.0000 C   0  0  0  0  0  0  0  0  0  0  0  0
   -7.7705    1.9058    0.0000 C   0  0  0  0  0  0  0  0  0  0  0  0
   -6.4594    1.3686    0.0000 C   0  0  0  0  0  0  0  0  0  0  0  0
   -8.0903    1.1512    0.0000 C   0  0  0  0  0  0  0  0  0  0  0  0
   -6.7728    0.6140    0.0000 C   0  0  0  0  0  0  0  0  0  0  0  0
   -7.5915    0.5116    0.0000 N   0  0  0  0  0  0  0  0  0  0  0  0
   -8.9089    1.0489    0.0000 C   0  0  0  0  0  0  0  0  0  0  0  0
   -9.2223    0.2942    0.0000 O   0  0  0  0  0  0  0  0  0  0  0  0
   -9.4142    1.7012    0.0000 N   0  0  0  0  0  0  0  0  0  0  0  0
  -10.2328    1.5988    0.0000 C   0  0  0  0  0  0  0  0  0  0  0  0
  1  2  1  0  0  0  0
  2  3  2  0  0  0  0
  2  4  1  0  0  0  0
  3  5  1  0  0  0  0
  3  6  1  0  0  0  0
  4  7  2  0  0  0  0
  5  8  2  0  0  0  0
  6  9  1  0  0  0  0
  6 10  1  0  0  0  0
  6 11  1  0  0  0  0
  8 12  1  0  0  0  0
 12 13  1  0  0  0  0
 13 14  2  0  0  0  0
 13 15  1  0  0  0  0
 15 16  1  0  0  0  0
 16 17  2  0  0  0  0
 16 18  1  0  0  0  0
 17 19  1  0  0  0  0
 17 20  1  0  0  0  0
 18 21  2  0  0  0  0
 20 22  2  0  0  0  0
 22 23  1  0  0  0  0
 23 24  1  0  0  0  0
 24 25  2  0  0  0  0
 24 26  1  0  0  0  0
 25 27  1  0  0  0  0
 26 28  2  0  0  0  0
 27 29  2  0  0  0  0
 27 30  1  0  0  0  0
 30 31  2  0  0  0  0
 30 32  1  0  0  0  0
 32 33  1  0  0  0  0
  7  8  1  0  0  0  0
 21 22  1  0  0  0  0
 28 29  1  0  0  0  0
M  END

>  <name>
Regorafenib

>  <ROTATABLE_BONDCOUNT>
6

>  <HBDScore>
0.16666666666666674

>  <dipole>
10.40

>  <logD>
4.49

>  <MPOScore>
2.466047619047619

>  <logDScore>
0.0

>  <MW>
482.82

>  <charge_dist(7.4)>
-0.00

>  <CNS>
FALSE

>  <ArRings>
3

>  <HBD>
3

>  <BALABAN_INDEX>
1.29

>  <bpKa>
2.02

>  <TPSAScore>
0.9216666666666669

>  <MWScore>
0.12271428571428578

>  <bpKaScore>
1.0

>  <logPScore>
0.2549999999999999

>  <MPO_area>
20.33

>  <TPSA>
92.35

>  <logP>
4.49

$$$$

  Mrv1722703221715202D          

 33 35  0  0  0  0            999 V2000
    0.0000    0.0000    0.0000 O   0  0  0  0  0  0  0  0  0  0  0  0
    0.1410    0.8202    0.0000 C   0  0  0  0  0  0  0  0  0  0  0  0
   -0.4934    1.3648    0.0000 O   0  0  0  0  0  0  0  0  0  0  0  0
    0.9163    1.1021    0.0000 C   0  0  0  0  0  0  0  0  0  0  0  0
    1.5379    0.5703    0.0000 C   0  0  0  0  0  0  0  0  0  0  0  0
    1.0573    1.9223    0.0000 C   0  0  0  0  0  0  0  0  0  0  0  0
    1.3841   -0.2371    0.0000 O   0  0  0  0  0  0  0  0  0  0  0  0
    2.3132    0.8522    0.0000 C   0  0  0  0  0  0  0  0  0  0  0  0
    1.8326    2.2043    0.0000 C   0  0  0  0  0  0  0  0  0  0  0  0
    2.0056   -0.7690    0.0000 C   0  0  0  0  0  0  0  0  0  0  0  0
    2.4541    1.6724    0.0000 C   0  0  0  0  0  0  0  0  0  0  0  0
    1.8518   -1.5763    0.0000 C   0  0  0  0  0  0  0  0  0  0  0  0
    3.2295    1.9544    0.0000 C   0  0  0  0  0  0  0  0  0  0  0  0
    3.8510    1.4225    0.0000 C   0  0  0  0  0  0  0  0  0  0  0  0
    3.6973    0.6151    0.0000 O   0  0  0  0  0  0  0  0  0  0  0  0
    4.6264    1.7044    0.0000 N   0  0  0  0  0  0  0  0  0  0  0  0
    5.2479    1.1726    0.0000 C   0  0  2  0  0  0  0  0  0  0  0  0
    5.0941    0.3653    0.0000 C   0  0  0  0  0  0  0  0  0  0  0  0
    6.0233    1.4546    0.0000 C   0  0  0  0  0  0  0  0  0  0  0  0
    5.7157   -0.1666    0.0000 C   0  0  0  0  0  0  0  0  0  0  0  0
    4.3060    0.0961    0.0000 C   0  0  0  0  0  0  0  0  0  0  0  0
    6.1643    2.2747    0.0000 C   0  0  0  0  0  0  0  0  0  0  0  0
    6.4910    0.1153    0.0000 N   0  0  0  0  0  0  0  0  0  0  0  0
    5.5619   -0.9740    0.0000 C   0  0  0  0  0  0  0  0  0  0  0  0
    4.1522   -0.7113    0.0000 C   0  0  0  0  0  0  0  0  0  0  0  0
    6.9396    2.5567    0.0000 C   0  0  0  0  0  0  0  0  0  0  0  0
    5.5299    2.8194    0.0000 C   0  0  0  0  0  0  0  0  0  0  0  0
    7.1126   -0.4165    0.0000 C   0  0  0  0  0  0  0  0  0  0  0  0
    6.6320    0.9355    0.0000 C   0  0  0  0  0  0  0  0  0  0  0  0
    4.7738   -1.2431    0.0000 C   0  0  0  0  0  0  0  0  0  0  0  0
    7.8879   -0.1346    0.0000 C   0  0  0  0  0  0  0  0  0  0  0  0
    7.4073    1.2175    0.0000 C   0  0  0  0  0  0  0  0  0  0  0  0
    8.0289    0.6856    0.0000 C   0  0  0  0  0  0  0  0  0  0  0  0
  1  2  2  0  0  0  0
  2  3  1  0  0  0  0
  2  4  1  0  0  0  0
  4  5  2  0  0  0  0
  4  6  1  0  0  0  0
  5  7  1  0  0  0  0
  5  8  1  0  0  0  0
  6  9  2  0  0  0  0
  7 10  1  0  0  0  0
  8 11  2  0  0  0  0
 10 12  1  0  0  0  0
 11 13  1  0  0  0  0
 13 14  1  0  0  0  0
 14 15  2  0  0  0  0
 14 16  1  0  0  0  0
 17 16  1  1  0  0  0
 17 18  1  0  0  0  0
 17 19  1  0  0  0  0
 18 20  2  0  0  0  0
 18 21  1  0  0  0  0
 19 22  1  0  0  0  0
 20 23  1  0  0  0  0
 20 24  1  0  0  0  0
 21 25  2  0  0  0  0
 22 26  1  0  0  0  0
 22 27  1  0  0  0  0
 23 28  1  0  0  0  0
 23 29  1  0  0  0  0
 24 30  2  0  0  0  0
 28 31  1  0  0  0  0
 29 32  1  0  0  0  0
 31 33  1  0  0  0  0
  9 11  1  0  0  0  0
 25 30  1  0  0  0  0
 32 33  1  0  0  0  0
M  END

>  <name>
Repaglinide

>  <ROTATABLE_BONDCOUNT>
10

>  <HBDScore>
0.5

>  <dipole>
8.13

>  <logD>
1.95

>  <MPOScore>
4.363607142857143

>  <logDScore>
1.0

>  <MW>
452.595

>  <charge_dist(7.4)>
-1.00

>  <CNS>
FALSE

>  <ArRings>
2

>  <HBD>
2

>  <BALABAN_INDEX>
1.47

>  <bpKa>
4.82

>  <TPSAScore>
1.0

>  <MWScore>
0.33860714285714266

>  <bpKaScore>
1.0

>  <logPScore>
0.5249999999999999

>  <MPO_area>
54.92

>  <TPSA>
78.87

>  <logP>
3.95

$$$$

  Mrv1722703221715202D          

 44 49  0  0  0  0            999 V2000
    0.0000    0.0000    0.0000 O   0  0  0  0  0  0  0  0  0  0  0  0
   -0.4302   -0.7040    0.0000 C   0  0  0  0  0  0  0  0  0  0  0  0
   -0.0326   -1.4210    0.0000 O   0  0  0  0  0  0  0  0  0  0  0  0
   -1.2645   -0.6844    0.0000 C   0  0  0  0  0  0  0  0  0  0  0  0
    0.7887   -1.4275    0.0000 C   0  0  1  0  0  0  0  0  0  0  0  0
   -1.6752    0.0456    0.0000 C   0  0  0  0  0  0  0  0  0  0  0  0
   -1.6948   -1.3884    0.0000 C   0  0  0  0  0  0  0  0  0  0  0  0
    1.1863   -2.1445    0.0000 C   0  0  2  0  0  0  0  0  0  0  0  0
    1.2059   -0.7105    0.0000 C   0  0  0  0  0  0  0  0  0  0  0  0
   -2.5095    0.0652    0.0000 C   0  0  0  0  0  0  0  0  0  0  0  0
   -2.5290   -1.3688    0.0000 C   0  0  0  0  0  0  0  0  0  0  0  0
    0.7561   -2.8484    0.0000 O   0  0  0  0  0  0  0  0  0  0  0  0
    2.0076   -2.1510    0.0000 C   0  0  1  0  0  0  0  0  0  0  0  0
    2.0272   -0.7170    0.0000 C   0  0  1  0  0  0  0  0  0  0  0  0
   -2.9202    0.7952    0.0000 O   0  0  0  0  0  0  0  0  0  0  0  0
   -2.9397   -0.6388    0.0000 C   0  0  0  0  0  0  0  0  0  0  0  0
   -2.9593   -2.0728    0.0000 O   0  0  0  0  0  0  0  0  0  0  0  0
   -0.0782   -2.8289    0.0000 C   0  0  0  0  0  0  0  0  0  0  0  0
    2.4052   -2.8680    0.0000 C   0  0  0  0  0  0  0  0  0  0  0  0
    2.4248   -1.4340    0.0000 C   0  0  2  0  0  0  0  0  0  0  0  0
    2.4443    0.0000    0.0000 C   0  0  0  0  0  0  0  0  0  0  0  0
   -2.5030    1.5122    0.0000 C   0  0  0  0  0  0  0  0  0  0  0  0
   -3.7740   -0.6193    0.0000 O   0  0  0  0  0  0  0  0  0  0  0  0
   -2.5617   -2.7898    0.0000 C   0  0  0  0  0  0  0  0  0  0  0  0
    3.2265   -2.8745    0.0000 O   0  0  0  0  0  0  0  0  0  0  0  0
    1.9750   -3.5720    0.0000 O   0  0  0  0  0  0  0  0  0  0  0  0
    3.2460   -1.4405    0.0000 C   0  0  0  0  0  0  0  0  0  0  0  0
    3.2656   -0.0065    0.0000 N   0  0  0  0  0  0  0  0  0  0  0  0
   -4.2042   -1.3232    0.0000 C   0  0  0  0  0  0  0  0  0  0  0  0
    2.3726   -4.2890    0.0000 C   0  0  0  0  0  0  0  0  0  0  0  0
    3.6632   -0.7235    0.0000 C   0  0  1  0  0  0  0  0  0  0  0  0
    3.6828    0.7105    0.0000 C   0  0  0  0  0  0  0  0  0  0  0  0
    4.4846   -0.7300    0.0000 C   0  0  0  0  0  0  0  0  0  0  0  0
    4.5041    0.7040    0.0000 C   0  0  0  0  0  0  0  0  0  0  0  0
    5.0255   -1.3427    0.0000 N   0  0  0  0  0  2  0  0  0  0  0  0
    4.9017   -0.0130    0.0000 C   0  0  0  0  0  0  0  0  0  0  0  0
    5.7816   -1.0103    0.0000 C   0  0  0  0  0  0  0  0  0  0  0  0
    5.7034   -0.1890    0.0000 C   0  0  0  0  0  0  0  0  0  0  0  0
    6.5247   -1.3493    0.0000 C   0  0  0  0  0  0  0  0  0  0  0  0
    6.3748    0.2933    0.0000 C   0  0  0  0  0  0  0  0  0  0  0  0
    7.1961   -0.8669    0.0000 C   0  0  0  0  0  0  0  0  0  0  0  0
    7.1179   -0.0456    0.0000 C   0  0  0  0  0  0  0  0  0  0  0  0
    7.9392   -1.2059    0.0000 O   0  0  0  0  0  0  0  0  0  0  0  0
    8.0109   -2.0206    0.0000 C   0  0  0  0  0  0  0  0  0  0  0  0
  1  2  2  0  0  0  0
  2  3  1  0  0  0  0
  2  4  1  0  0  0  0
  5  3  1  6  0  0  0
  4  6  2  0  0  0  0
  4  7  1  0  0  0  0
  5  8  1  0  0  0  0
  5  9  1  0  0  0  0
  6 10  1  0  0  0  0
  7 11  2  0  0  0  0
  8 12  1  1  0  0  0
  8 13  1  0  0  0  0
 14  9  1  6  0  0  0
 10 15  1  0  0  0  0
 10 16  2  0  0  0  0
 11 17  1  0  0  0  0
 12 18  1  0  0  0  0
 13 19  1  6  0  0  0
 13 20  1  0  0  0  0
 14 21  1  0  0  0  0
 15 22  1  0  0  0  0
 16 23  1  0  0  0  0
 17 24  1  0  0  0  0
 19 25  2  0  0  0  0
 19 26  1  0  0  0  0
 20 27  1  6  0  0  0
 21 28  1  0  0  0  0
 23 29  1  0  0  0  0
 26 30  1  0  0  0  0
 27 31  1  0  0  0  0
 28 32  1  0  0  0  0
 31 33  1  0  0  0  0
 32 34  1  0  0  0  0
 33 35  1  0  0  0  0
 33 36  2  0  0  0  0
 35 37  1  0  0  0  0
 36 38  1  0  0  0  0
 37 39  2  0  0  0  0
 38 40  2  0  0  0  0
 39 41  1  0  0  0  0
 40 42  1  0  0  0  0
 41 43  1  0  0  0  0
 43 44  1  0  0  0  0
 11 16  1  0  0  0  0
 14 20  1  0  0  0  0
 31 28  1  1  0  0  0
 34 36  1  0  0  0  0
 37 38  1  0  0  0  0
 41 42  2  0  0  0  0
M  RAD  1  35   2
M  END

>  <name>
Reserpine

>  <ROTATABLE_BONDCOUNT>
10

>  <HBDScore>
1.0

>  <logD>
3.35

>  <MPOScore>
3.205666666666667

>  <logDScore>
0.32499999999999996

>  <MW>
607.680

>  <charge_dist(7.4)>
0.40

>  <CNS>
FALSE

>  <ArRings>
3

>  <HBD>
0

>  <BALABAN_INDEX>
1.18

>  <bpKa>
7.23

>  <TPSAScore>
0.17066666666666686

>  <MWScore>
0.0

>  <bpKaScore>
1.0

>  <logPScore>
0.71

>  <MPO_area>
33.27

>  <TPSA>
114.88

>  <logP>
3.58

$$$$

  Mrv1722703221715202D          

 17 18  0  0  0  0            999 V2000
    0.0000    0.0000    0.0000 O   0  0  0  0  0  0  0  0  0  0  0  0
   -0.1229   -0.8083    0.0000 C   0  0  0  0  0  0  0  0  0  0  0  0
    0.5173   -1.3127    0.0000 N   0  0  0  0  0  0  0  0  0  0  0  0
   -0.8924   -1.1057    0.0000 C   0  0  0  0  0  0  0  0  0  0  0  0
   -1.5972   -0.6596    0.0000 N   0  0  0  0  0  0  0  0  0  0  0  0
   -1.1057   -1.8947    0.0000 N   0  0  0  0  0  0  0  0  0  0  0  0
   -2.2374   -1.1769    0.0000 N   0  0  0  0  0  0  0  0  0  0  0  0
   -1.9334   -1.9399    0.0000 C   0  0  0  0  0  0  0  0  0  0  0  0
   -3.0392   -0.9635    0.0000 C   0  0  1  0  0  0  0  0  0  0  0  0
   -3.6794   -1.4808    0.0000 O   0  0  0  0  0  0  0  0  0  0  0  0
   -3.3496   -0.1940    0.0000 C   0  0  1  0  0  0  0  0  0  0  0  0
   -4.3842   -1.0346    0.0000 C   0  0  2  0  0  0  0  0  0  0  0  0
   -2.9164    0.5108    0.0000 O   0  0  0  0  0  0  0  0  0  0  0  0
   -4.1773   -0.2393    0.0000 C   0  0  2  0  0  0  0  0  0  0  0  0
   -5.1537   -1.3321    0.0000 C   0  0  0  0  0  0  0  0  0  0  0  0
   -4.7076    0.4009    0.0000 O   0  0  0  0  0  0  0  0  0  0  0  0
   -5.2766   -2.1404    0.0000 O   0  0  0  0  0  0  0  0  0  0  0  0
  1  2  2  0  0  0  0
  2  3  1  0  0  0  0
  2  4  1  0  0  0  0
  4  5  2  0  0  0  0
  4  6  1  0  0  0  0
  5  7  1  0  0  0  0
  6  8  2  0  0  0  0
  9  7  1  1  0  0  0
  9 10  1  0  0  0  0
  9 11  1  0  0  0  0
 10 12  1  0  0  0  0
 11 13  1  6  0  0  0
 11 14  1  0  0  0  0
 12 15  1  1  0  0  0
 14 16  1  6  0  0  0
 15 17  1  0  0  0  0
  7  8  1  0  0  0  0
 12 14  1  0  0  0  0
M  END

>  <name>
Ribavirin

>  <ROTATABLE_BONDCOUNT>
3

>  <HBDScore>
0.0

>  <dipole>
6.36

>  <logD>
-2.77

>  <MPOScore>
4.0

>  <logDScore>
1.0

>  <MW>
244.207

>  <charge_dist(7.4)>
-0.00

>  <CNS>
FALSE

>  <ArRings>
1

>  <HBD>
4

>  <BALABAN_INDEX>
1.96

>  <bpKa>
-1.16

>  <TPSAScore>
0.0

>  <MWScore>
1.0

>  <bpKaScore>
1.0

>  <logPScore>
1.0

>  <MPO_area>
50.0

>  <TPSA>
143.72

>  <logP>
-2.77

$$$$

  Mrv1722703221715202D          

 57 62  0  0  0  0            999 V2000
    0.0000    0.0000    0.0000 O   0  0  0  0  0  0  0  0  0  0  0  0
   -0.5061   -0.6432    0.0000 C   0  0  0  0  0  0  0  0  0  0  0  0
    0.0738   -1.2127    0.0000 N   0  0  0  0  0  0  0  0  0  0  0  0
   -1.2338   -0.2320    0.0000 C   0  0  0  0  0  0  0  0  0  0  0  0
    0.2320   -2.5413    0.0000 C   0  0  0  0  0  0  0  0  0  0  0  0
   -2.0457   -0.0105    0.0000 C   0  0  0  0  0  0  0  0  0  0  0  0
   -0.9385    0.5483    0.0000 C   0  0  0  0  0  0  0  0  0  0  0  0
   -0.6011   -2.5835    0.0000 C   0  0  0  0  0  0  0  0  0  0  0  0
    0.6854   -3.2162    0.0000 C   0  0  0  0  0  0  0  0  0  0  0  0
   -2.8788   -0.0105    0.0000 C   0  0  0  0  0  0  0  0  0  0  0  0
   -1.0756   -1.8875    0.0000 O   0  0  0  0  0  0  0  0  0  0  0  0
   -0.9807   -3.3111    0.0000 C   0  0  0  0  0  0  0  0  0  0  0  0
    1.4869   -3.3217    0.0000 N   0  0  0  0  0  0  0  0  0  0  0  0
    0.3058   -3.9438    0.0000 C   0  0  0  0  0  0  0  0  0  0  0  0
   -3.6802   -0.2215    0.0000 C   0  0  0  0  0  0  0  0  0  0  0  0
   -1.8137   -3.3533    0.0000 C   0  0  0  0  0  0  0  0  0  0  0  0
   -0.5272   -3.9860    0.0000 C   0  0  0  0  0  0  0  0  0  0  0  0
    1.6134   -4.1231    0.0000 C   0  0  0  0  0  0  0  0  0  0  0  0
    2.1090   -2.7839    0.0000 C   0  0  0  0  0  0  0  0  0  0  0  0
    0.8858   -4.5133    0.0000 N   0  0  0  0  0  0  0  0  0  0  0  0
   -4.3973   -0.6327    0.0000 C   0  0  2  0  0  0  0  0  0  0  0  0
   -2.2883   -2.6573    0.0000 O   0  0  0  0  0  0  0  0  0  0  0  0
   -2.1934   -4.0809    0.0000 C   0  0  0  0  0  0  0  0  0  0  0  0
   -0.9069   -4.7136    0.0000 C   0  0  0  0  0  0  0  0  0  0  0  0
    2.3727   -4.3973    0.0000 C   0  0  0  0  0  0  0  0  0  0  0  0
    2.8683   -3.0581    0.0000 C   0  0  0  0  0  0  0  0  0  0  0  0
   -4.9878   -1.2127    0.0000 C   0  0  1  0  0  0  0  0  0  0  0  0
   -4.9140    0.0316    0.0000 C   0  0  0  0  0  0  0  0  0  0  0  0
   -1.7399   -4.7558    0.0000 C   0  0  0  0  0  0  0  0  0  0  0  0
   -3.0265   -4.1231    0.0000 C   0  0  0  0  0  0  0  0  0  0  0  0
   -0.6116   -5.4729    0.0000 C   0  0  0  0  0  0  0  0  0  0  0  0
    2.9948   -3.8595    0.0000 C   0  0  0  0  0  0  0  0  0  0  0  0
   -5.6522   -0.7065    0.0000 O   0  0  0  0  0  0  0  0  0  0  0  0
   -5.3991   -1.9192    0.0000 C   0  0  1  0  0  0  0  0  0  0  0  0
   -1.9508   -5.5467    0.0000 O   0  0  0  0  0  0  0  0  0  0  0  0
    0.1793   -5.6627    0.0000 O   0  0  0  0  0  0  0  0  0  0  0  0
   -1.2549   -5.9896    0.0000 C   0  0  1  0  0  0  0  0  0  0  0  0
    3.7541   -4.1337    0.0000 C   0  0  0  0  0  0  0  0  0  0  0  0
   -5.6205   -2.7101    0.0000 C   0  0  2  0  0  0  0  0  0  0  0  0
   -6.1794   -1.6029    0.0000 C   0  0  0  0  0  0  0  0  0  0  0  0
   -2.0563   -6.2005    0.0000 O   0  0  0  0  0  0  0  0  0  0  0  0
   -1.2127   -6.8015    0.0000 C   0  0  0  0  0  0  0  0  0  0  0  0
   -6.4536   -2.5941    0.0000 O   0  0  0  0  0  0  0  0  0  0  0  0
   -5.6205   -3.5221    0.0000 C   0  0  1  0  0  0  0  0  0  0  0  0
   -2.8894   -6.2005    0.0000 C   0  0  0  0  0  0  0  0  0  0  0  0
   -5.4096   -4.3024    0.0000 C   0  0  1  0  0  0  0  0  0  0  0  0
   -6.4430   -3.6275    0.0000 C   0  0  0  0  0  0  0  0  0  0  0  0
   -3.7013   -5.9790    0.0000 C   0  0  0  0  0  0  0  0  0  0  0  0
   -6.1794   -4.6187    0.0000 O   0  0  0  0  0  0  0  0  0  0  0  0
   -4.9984   -4.9984    0.0000 C   0  0  2  0  0  0  0  0  0  0  0  0
   -4.4289   -5.5678    0.0000 C   0  0  2  0  0  0  0  0  0  0  0  0
   -6.8437   -4.1126    0.0000 C   0  0  0  0  0  0  0  0  0  0  0  0
   -5.6627   -5.4940    0.0000 C   0  0  0  0  0  0  0  0  0  0  0  0
   -4.9351   -6.2110    0.0000 O   0  0  0  0  0  0  0  0  0  0  0  0
   -7.6135   -4.4289    0.0000 O   0  0  0  0  0  0  0  0  0  0  0  0
   -6.7488   -3.2795    0.0000 C   0  0  0  0  0  0  0  0  0  0  0  0
   -4.6187   -6.9597    0.0000 C   0  0  0  0  0  0  0  0  0  0  0  0
  1  2  2  0  0  0  0
  2  3  1  0  0  0  0
  2  4  1  0  0  0  0
  3  5  1  0  0  0  0
  4  6  2  0  0  0  0
  4  7  1  0  0  0  0
  5  8  2  0  0  0  0
  5  9  1  0  0  0  0
  6 10  1  0  0  0  0
  8 11  1  0  0  0  0
  8 12  1  0  0  0  0
  9 13  1  0  0  0  0
  9 14  2  0  0  0  0
 10 15  2  0  0  0  0
 12 16  2  0  0  0  0
 12 17  1  0  0  0  0
 13 18  1  0  0  0  0
 13 19  1  0  0  0  0
 14 20  1  0  0  0  0
 15 21  1  0  0  0  0
 16 22  1  0  0  0  0
 16 23  1  0  0  0  0
 17 24  2  0  0  0  0
 18 25  1  0  0  0  0
 19 26  2  0  0  0  0
 21 27  1  0  0  0  0
 21 28  1  6  0  0  0
 23 29  2  0  0  0  0
 23 30  1  0  0  0  0
 24 31  1  0  0  0  0
 25 32  2  0  0  0  0
 27 33  1  6  0  0  0
 27 34  1  0  0  0  0
 29 35  1  0  0  0  0
 31 36  2  0  0  0  0
 31 37  1  0  0  0  0
 32 38  1  0  0  0  0
 34 39  1  0  0  0  0
 34 40  1  1  0  0  0
 37 41  1  0  0  0  0
 37 42  1  1  0  0  0
 39 43  1  1  0  0  0
 39 44  1  0  0  0  0
 41 45  1  0  0  0  0
 44 46  1  0  0  0  0
 44 47  1  1  0  0  0
 45 48  2  0  0  0  0
 46 49  1  6  0  0  0
 46 50  1  0  0  0  0
 48 51  1  0  0  0  0
 49 52  1  0  0  0  0
 50 53  1  6  0  0  0
 51 54  1  1  0  0  0
 52 55  2  0  0  0  0
 52 56  1  0  0  0  0
 54 57  1  0  0  0  0
 14 17  1  0  0  0  0
 18 20  2  0  0  0  0
 24 29  1  0  0  0  0
 26 32  1  0  0  0  0
 35 37  1  0  0  0  0
 50 51  1  0  0  0  0
M  END

>  <name>
Rifaximin

>  <ROTATABLE_BONDCOUNT>
3

>  <HBDScore>
0.0

>  <dipole>
6.64

>  <logD>
3.93

>  <MPOScore>
1.24

>  <logDScore>
0.03499999999999992

>  <MW>
785.891

>  <charge_dist(7.4)>
-1.38

>  <CNS>
FALSE

>  <ArRings>
4

>  <HBD>
5

>  <BALABAN_INDEX>
1.21

>  <bpKa>
5.88

>  <TPSAScore>
0.0

>  <MWScore>
0.0

>  <bpKaScore>
1.0

>  <logPScore>
0.20500000000000007

>  <MPO_area>
3.54

>  <TPSA>
198.38

>  <logP>
4.59

$$$$

  Mrv1722703221715202D          

 31 34  0  0  0  0            999 V2000
    0.0000    0.0000    0.0000 F   0  0  0  0  0  0  0  0  0  0  0  0
   -0.6837   -0.4580    0.0000 C   0  0  0  0  0  0  0  0  0  0  0  0
   -1.4319   -0.0967    0.0000 C   0  0  0  0  0  0  0  0  0  0  0  0
   -0.6256   -1.2706    0.0000 C   0  0  0  0  0  0  0  0  0  0  0  0
   -2.1156   -0.5547    0.0000 C   0  0  0  0  0  0  0  0  0  0  0  0
   -1.5028    0.7288    0.0000 C   0  0  0  0  0  0  0  0  0  0  0  0
   -1.3093   -1.7286    0.0000 C   0  0  0  0  0  0  0  0  0  0  0  0
   -2.0575   -1.3674    0.0000 C   0  0  0  0  0  0  0  0  0  0  0  0
   -2.2510    1.0900    0.0000 N   0  0  0  0  0  0  0  0  0  0  0  0
   -2.9799    0.7095    0.0000 N   0  0  0  0  0  0  0  0  0  0  0  0
   -2.4058    1.9027    0.0000 C   0  0  0  0  0  0  0  0  0  0  0  0
   -3.5797    1.2835    0.0000 C   0  0  0  0  0  0  0  0  0  0  0  0
   -1.9092    2.5606    0.0000 N   0  0  0  0  0  0  0  0  0  0  0  0
   -3.2249    2.0188    0.0000 C   0  0  0  0  0  0  0  0  0  0  0  0
   -4.3924    1.1416    0.0000 C   0  0  0  0  0  0  0  0  0  0  0  0
   -2.2252    3.3281    0.0000 C   0  0  0  0  0  0  0  0  0  0  0  0
   -3.5410    2.7864    0.0000 C   0  0  0  0  0  0  0  0  0  0  0  0
   -4.9277    1.7737    0.0000 N   0  0  0  0  0  0  0  0  0  0  0  0
   -4.6761    0.3741    0.0000 N   0  0  0  0  0  0  0  0  0  0  0  0
   -3.0444    3.4442    0.0000 C   0  0  0  0  0  0  0  0  0  0  0  0
   -5.7404    1.6318    0.0000 C   0  0  0  0  0  0  0  0  0  0  0  0
   -5.4888    0.2322    0.0000 C   0  0  0  0  0  0  0  0  0  0  0  0
   -6.2757    2.2639    0.0000 N   0  0  0  0  0  0  0  0  0  0  0  0
   -6.0242    0.8643    0.0000 C   0  0  0  0  0  0  0  0  0  0  0  0
   -5.7726   -0.5353    0.0000 N   0  0  0  0  0  0  0  0  0  0  0  0
   -6.8369    0.7224    0.0000 N   0  0  0  0  0  0  0  0  0  0  0  0
   -7.1206   -0.0452    0.0000 C   0  0  0  0  0  0  0  0  0  0  0  0
   -7.3722    1.3545    0.0000 C   0  0  0  0  0  0  0  0  0  0  0  0
   -6.5982   -0.6643    0.0000 O   0  0  0  0  0  0  0  0  0  0  0  0
   -7.9333   -0.1871    0.0000 O   0  0  0  0  0  0  0  0  0  0  0  0
   -8.2171   -0.9546    0.0000 C   0  0  0  0  0  0  0  0  0  0  0  0
  1  2  1  0  0  0  0
  2  3  2  0  0  0  0
  2  4  1  0  0  0  0
  3  5  1  0  0  0  0
  3  6  1  0  0  0  0
  4  7  2  0  0  0  0
  5  8  2  0  0  0  0
  6  9  1  0  0  0  0
  9 10  1  0  0  0  0
  9 11  1  0  0  0  0
 10 12  2  0  0  0  0
 11 13  2  0  0  0  0
 11 14  1  0  0  0  0
 12 15  1  0  0  0  0
 13 16  1  0  0  0  0
 14 17  2  0  0  0  0
 15 18  2  0  0  0  0
 15 19  1  0  0  0  0
 16 20  2  0  0  0  0
 18 21  1  0  0  0  0
 19 22  2  0  0  0  0
 21 23  1  0  0  0  0
 21 24  2  0  0  0  0
 22 25  1  0  0  0  0
 24 26  1  0  0  0  0
 26 27  1  0  0  0  0
 26 28  1  0  0  0  0
 27 29  2  0  0  0  0
 27 30  1  0  0  0  0
 30 31  1  0  0  0  0
  7  8  1  0  0  0  0
 12 14  1  0  0  0  0
 17 20  1  0  0  0  0
 22 24  1  0  0  0  0
M  END

>  <name>
Riociguat

>  <ROTATABLE_BONDCOUNT>
5

>  <HBDScore>
0.5

>  <dipole>
1.88

>  <logD>
2.69

>  <MPOScore>
3.709114285714286

>  <logDScore>
0.655

>  <MW>
422.424

>  <charge_dist(7.4)>
0.00

>  <CNS>
FALSE

>  <ArRings>
4

>  <HBD>
2

>  <BALABAN_INDEX>
1.27

>  <bpKa>
3.5

>  <TPSAScore>
0.0

>  <MWScore>
0.5541142857142859

>  <bpKaScore>
1.0

>  <logPScore>
1.0

>  <MPO_area>
38.25

>  <TPSA>
138.07

>  <logP>
2.69

$$$$

  Mrv1722703221715202D          

 17 17  0  0  0  0            999 V2000
    0.0000    0.0000    0.0000 P   0  0  0  0  0  0  0  0  0  0  0  0
   -0.6367   -0.5339    0.0000 O   0  0  0  0  0  0  0  0  0  0  0  0
   -0.5467    0.6367    0.0000 O   0  0  0  0  0  0  0  0  0  0  0  0
    0.5339   -0.6239    0.0000 O   0  0  0  0  0  0  0  0  0  0  0  0
    0.6239    0.5467    0.0000 C   0  0  0  0  0  0  0  0  0  0  0  0
    1.2477    1.0934    0.0000 P   0  0  0  0  0  0  0  0  0  0  0  0
    0.0772    1.1834    0.0000 O   0  0  0  0  0  0  0  0  0  0  0  0
    1.1577   -0.0772    0.0000 C   0  0  0  0  0  0  0  0  0  0  0  0
    1.8716    1.6401    0.0000 O   0  0  0  0  0  0  0  0  0  0  0  0
    0.7010    1.7301    0.0000 O   0  0  0  0  0  0  0  0  0  0  0  0
    1.7881    0.7075    0.0000 O   0  0  0  0  0  0  0  0  0  0  0  0
    1.9681    0.0772    0.0000 C   0  0  0  0  0  0  0  0  0  0  0  0
    2.5020   -0.5467    0.0000 C   0  0  0  0  0  0  0  0  0  0  0  0
    2.2383    0.8683    0.0000 C   0  0  0  0  0  0  0  0  0  0  0  0
    3.3124   -0.3923    0.0000 N   0  0  0  0  0  0  0  0  0  0  0  0
    3.0487    1.0226    0.0000 C   0  0  0  0  0  0  0  0  0  0  0  0
    3.5825    0.3988    0.0000 C   0  0  0  0  0  0  0  0  0  0  0  0
  1  2  2  0  0  0  0
  1  3  1  0  0  0  0
  1  4  1  0  0  0  0
  1  5  1  0  0  0  0
  5  6  1  0  0  0  0
  5  7  1  0  0  0  0
  5  8  1  0  0  0  0
  6  9  2  0  0  0  0
  6 10  1  0  0  0  0
  6 11  1  0  0  0  0
  8 12  1  0  0  0  0
 12 13  2  0  0  0  0
 12 14  1  0  0  0  0
 13 15  1  0  0  0  0
 14 16  2  0  0  0  0
 15 17  2  0  0  0  0
 16 17  1  0  0  0  0
M  END

>  <name>
Risedronate

>  <ROTATABLE_BONDCOUNT>
4

>  <HBDScore>
0.0

>  <dipole>
2.53

>  <logD>
-6.73

>  <MPOScore>
4.0

>  <logDScore>
1.0

>  <MW>
283.113

>  <charge_dist(7.4)>
-2.91

>  <CNS>
FALSE

>  <ArRings>
1

>  <HBD>
5

>  <BALABAN_INDEX>
2.67

>  <bpKa>
4.91

>  <TPSAScore>
0.0

>  <MWScore>
1.0

>  <bpKaScore>
1.0

>  <logPScore>
1.0

>  <MPO_area>
50.0

>  <TPSA>
148.18

>  <logP>
-3.32

$$$$

  Mrv1722703221715202D          

 21 22  0  0  0  0            999 V2000
    0.0000    0.0000    0.0000 O   0  0  0  0  0  0  0  0  0  0  0  0
   -0.3930   -0.7152    0.0000 C   0  0  0  0  0  0  0  0  0  0  0  0
    0.0322   -1.4047    0.0000 C   0  0  0  0  0  0  0  0  0  0  0  0
   -1.2179   -0.7346    0.0000 C   0  0  0  0  0  0  0  0  0  0  0  0
   -0.3608   -2.1200    0.0000 C   0  0  0  0  0  0  0  0  0  0  0  0
   -1.6109   -1.4499    0.0000 C   0  0  0  0  0  0  0  0  0  0  0  0
   -1.1857   -2.1393    0.0000 C   0  0  0  0  0  0  0  0  0  0  0  0
   -1.5787   -2.8546    0.0000 C   0  0  1  0  0  0  0  0  0  0  0  0
   -1.1534   -3.5440    0.0000 O   0  0  0  0  0  0  0  0  0  0  0  0
   -2.4035   -2.8739    0.0000 C   0  0  1  0  0  0  0  0  0  0  0  0
   -2.8417   -2.1715    0.0000 N   0  0  0  0  0  0  0  0  0  0  0  0
   -2.7966   -3.5891    0.0000 C   0  0  0  0  0  0  0  0  0  0  0  0
   -3.6665   -2.1909    0.0000 C   0  0  0  0  0  0  0  0  0  0  0  0
   -4.1047   -1.4885    0.0000 C   0  0  0  0  0  0  0  0  0  0  0  0
   -4.9294   -1.5078    0.0000 C   0  0  0  0  0  0  0  0  0  0  0  0
   -5.3676   -0.8055    0.0000 C   0  0  0  0  0  0  0  0  0  0  0  0
   -5.3225   -2.2231    0.0000 C   0  0  0  0  0  0  0  0  0  0  0  0
   -6.1924   -0.8248    0.0000 C   0  0  0  0  0  0  0  0  0  0  0  0
   -6.1473   -2.2424    0.0000 C   0  0  0  0  0  0  0  0  0  0  0  0
   -6.5854   -1.5401    0.0000 C   0  0  0  0  0  0  0  0  0  0  0  0
   -7.4103   -1.5594    0.0000 O   0  0  0  0  0  0  0  0  0  0  0  0
  1  2  1  0  0  0  0
  2  3  2  0  0  0  0
  2  4  1  0  0  0  0
  3  5  1  0  0  0  0
  4  6  2  0  0  0  0
  5  7  2  0  0  0  0
  7  8  1  0  0  0  0
  8  9  1  1  0  0  0
  8 10  1  0  0  0  0
 10 11  1  6  0  0  0
 10 12  1  0  0  0  0
 11 13  1  0  0  0  0
 13 14  1  0  0  0  0
 14 15  1  0  0  0  0
 15 16  2  0  0  0  0
 15 17  1  0  0  0  0
 16 18  1  0  0  0  0
 17 19  2  0  0  0  0
 18 20  2  0  0  0  0
 20 21  1  0  0  0  0
  6  7  1  0  0  0  0
 19 20  1  0  0  0  0
M  END

>  <name>
Ritodrine

>  <ROTATABLE_BONDCOUNT>
6

>  <HBDScore>
0.0

>  <dipole>
3.72

>  <logD>
0.51

>  <MPOScore>
4.095

>  <logDScore>
1.0

>  <MW>
287.359

>  <charge_dist(7.4)>
0.98

>  <CNS>
FALSE

>  <ArRings>
2

>  <HBD>
4

>  <BALABAN_INDEX>
1.54

>  <bpKa>
9.81

>  <TPSAScore>
1.0

>  <MWScore>
1.0

>  <bpKaScore>
0.09499999999999975

>  <logPScore>
1.0

>  <MPO_area>
51.58

>  <TPSA>
72.72

>  <logP>
1.82

$$$$

  Mrv1722703221715202D          

 50 53  0  0  0  0            999 V2000
    0.0000    0.0000    0.0000 S   0  0  0  0  0  0  0  0  0  0  0  0
   -0.5631   -0.5954    0.0000 C   0  0  0  0  0  0  0  0  0  0  0  0
   -0.4077    0.7249    0.0000 C   0  0  0  0  0  0  0  0  0  0  0  0
   -1.3138   -0.2459    0.0000 C   0  0  0  0  0  0  0  0  0  0  0  0
   -0.4077   -1.3980    0.0000 C   0  0  0  0  0  0  0  0  0  0  0  0
   -1.2232    0.5695    0.0000 N   0  0  0  0  0  0  0  0  0  0  0  0
   -1.0355   -1.9351    0.0000 O   0  0  0  0  0  0  0  0  0  0  0  0
   -0.8802   -2.7376    0.0000 C   0  0  0  0  0  0  0  0  0  0  0  0
   -0.1100   -2.9965    0.0000 O   0  0  0  0  0  0  0  0  0  0  0  0
   -1.5080   -3.2748    0.0000 N   0  0  0  0  0  0  0  0  0  0  0  0
   -1.3526   -4.0773    0.0000 C   0  0  2  0  0  0  0  0  0  0  0  0
   -0.5825   -4.3361    0.0000 C   0  0  1  0  0  0  0  0  0  0  0  0
   -1.9804   -4.6145    0.0000 C   0  0  0  0  0  0  0  0  0  0  0  0
   -0.4271   -5.1387    0.0000 O   0  0  0  0  0  0  0  0  0  0  0  0
    0.0324   -3.7861    0.0000 C   0  0  0  0  0  0  0  0  0  0  0  0
   -2.7635   -4.3426    0.0000 C   0  0  0  0  0  0  0  0  0  0  0  0
    0.8025   -4.0449    0.0000 C   0  0  1  0  0  0  0  0  0  0  0  0
   -3.3912   -4.8798    0.0000 C   0  0  0  0  0  0  0  0  0  0  0  0
   -2.9318   -3.5272    0.0000 C   0  0  0  0  0  0  0  0  0  0  0  0
    1.4173   -3.4948    0.0000 N   0  0  0  0  0  0  0  0  0  0  0  0
    0.9578   -4.8474    0.0000 C   0  0  0  0  0  0  0  0  0  0  0  0
   -4.1744   -4.6080    0.0000 C   0  0  0  0  0  0  0  0  0  0  0  0
   -3.7148   -3.2554    0.0000 C   0  0  0  0  0  0  0  0  0  0  0  0
    1.2491   -2.6794    0.0000 C   0  0  0  0  0  0  0  0  0  0  0  0
    1.7280   -5.1063    0.0000 C   0  0  0  0  0  0  0  0  0  0  0  0
   -4.3426   -3.7925    0.0000 C   0  0  0  0  0  0  0  0  0  0  0  0
    0.4660   -2.4076    0.0000 O   0  0  0  0  0  0  0  0  0  0  0  0
    1.8639   -2.1292    0.0000 C   0  0  1  0  0  0  0  0  0  0  0  0
    1.8833   -5.9088    0.0000 C   0  0  0  0  0  0  0  0  0  0  0  0
    2.3428   -4.5562    0.0000 C   0  0  0  0  0  0  0  0  0  0  0  0
    2.6341   -2.3881    0.0000 N   0  0  0  0  0  0  0  0  0  0  0  0
    1.6956   -1.3138    0.0000 C   0  0  0  0  0  0  0  0  0  0  0  0
    2.6535   -6.1677    0.0000 C   0  0  0  0  0  0  0  0  0  0  0  0
    3.1130   -4.8151    0.0000 C   0  0  0  0  0  0  0  0  0  0  0  0
    3.2489   -1.8380    0.0000 C   0  0  0  0  0  0  0  0  0  0  0  0
    2.3105   -0.7637    0.0000 C   0  0  0  0  0  0  0  0  0  0  0  0
    0.9125   -1.0420    0.0000 C   0  0  0  0  0  0  0  0  0  0  0  0
    3.2683   -5.6176    0.0000 C   0  0  0  0  0  0  0  0  0  0  0  0
    3.0806   -1.0225    0.0000 O   0  0  0  0  0  0  0  0  0  0  0  0
    4.0190   -2.0969    0.0000 N   0  0  0  0  0  0  0  0  0  0  0  0
    4.1744   -2.8994    0.0000 C   0  0  0  0  0  0  0  0  0  0  0  0
    4.6339   -1.5468    0.0000 C   0  0  0  0  0  0  0  0  0  0  0  0
    4.9445   -3.1583    0.0000 C   0  0  0  0  0  0  0  0  0  0  0  0
    5.6111   -2.6794    0.0000 N   0  0  0  0  0  0  0  0  0  0  0  0
    5.1775   -3.9349    0.0000 C   0  0  0  0  0  0  0  0  0  0  0  0
    6.2648   -3.1647    0.0000 C   0  0  0  0  0  0  0  0  0  0  0  0
    5.9930   -3.9414    0.0000 S   0  0  0  0  0  0  0  0  0  0  0  0
    7.0414   -2.9188    0.0000 C   0  0  0  0  0  0  0  0  0  0  0  0
    7.6368   -3.4689    0.0000 C   0  0  0  0  0  0  0  0  0  0  0  0
    7.2162   -2.1098    0.0000 C   0  0  0  0  0  0  0  0  0  0  0  0
  1  2  1  0  0  0  0
  1  3  1  0  0  0  0
  2  4  2  0  0  0  0
  2  5  1  0  0  0  0
  3  6  2  0  0  0  0
  5  7  1  0  0  0  0
  7  8  1  0  0  0  0
  8  9  2  0  0  0  0
  8 10  1  0  0  0  0
 11 10  1  6  0  0  0
 11 12  1  0  0  0  0
 11 13  1  0  0  0  0
 12 14  1  6  0  0  0
 12 15  1  0  0  0  0
 13 16  1  0  0  0  0
 15 17  1  0  0  0  0
 16 18  2  0  0  0  0
 16 19  1  0  0  0  0
 17 20  1  1  0  0  0
 17 21  1  0  0  0  0
 18 22  1  0  0  0  0
 19 23  2  0  0  0  0
 20 24  1  0  0  0  0
 21 25  1  0  0  0  0
 22 26  2  0  0  0  0
 24 27  2  0  0  0  0
 24 28  1  0  0  0  0
 25 29  2  0  0  0  0
 25 30  1  0  0  0  0
 28 31  1  6  0  0  0
 28 32  1  0  0  0  0
 29 33  1  0  0  0  0
 30 34  2  0  0  0  0
 31 35  1  0  0  0  0
 32 36  1  0  0  0  0
 32 37  1  0  0  0  0
 33 38  2  0  0  0  0
 35 39  2  0  0  0  0
 35 40  1  0  0  0  0
 40 41  1  0  0  0  0
 40 42  1  0  0  0  0
 41 43  1  0  0  0  0
 43 44  1  0  0  0  0
 43 45  2  0  0  0  0
 44 46  2  0  0  0  0
 45 47  1  0  0  0  0
 46 48  1  0  0  0  0
 48 49  1  0  0  0  0
 48 50  1  0  0  0  0
  4  6  1  0  0  0  0
 23 26  1  0  0  0  0
 34 38  1  0  0  0  0
 46 47  1  0  0  0  0
M  END

>  <name>
Ritonavir

>  <ROTATABLE_BONDCOUNT>
18

>  <HBDScore>
0.0

>  <dipole>
6.33

>  <logD>
5.22

>  <MPOScore>
1.0

>  <logDScore>
0.0

>  <MW>
720.95

>  <charge_dist(7.4)>
0.00

>  <CNS>
FALSE

>  <ArRings>
4

>  <HBD>
4

>  <BALABAN_INDEX>
1.31

>  <bpKa>
2.84

>  <TPSAScore>
0.0

>  <MWScore>
0.0

>  <bpKaScore>
1.0

>  <logPScore>
0.0

>  <MPO_area>
0.0

>  <TPSA>
145.78

>  <logP>
5.22

$$$$

  Mrv1722703221715202D          

 29 32  0  0  0  0            999 V2000
    0.0000    0.0000    0.0000 Cl  0  0  0  0  0  0  0  0  0  0  0  0
    0.3528   -0.7384    0.0000 C   0  0  0  0  0  0  0  0  0  0  0  0
    1.1631   -0.8821    0.0000 S   0  0  0  0  0  0  0  0  0  0  0  0
   -0.0458   -1.4637    0.0000 C   0  0  0  0  0  0  0  0  0  0  0  0
    1.2676   -1.6989    0.0000 C   0  0  0  0  0  0  0  0  0  0  0  0
    0.5228   -2.0583    0.0000 C   0  0  0  0  0  0  0  0  0  0  0  0
    1.9930   -2.0844    0.0000 C   0  0  0  0  0  0  0  0  0  0  0  0
    2.0126   -2.9078    0.0000 O   0  0  0  0  0  0  0  0  0  0  0  0
    2.6922   -1.6401    0.0000 N   0  0  0  0  0  0  0  0  0  0  0  0
    3.4175   -2.0256    0.0000 C   0  0  0  0  0  0  0  0  0  0  0  0
    4.1166   -1.5813    0.0000 C   0  0  2  0  0  0  0  0  0  0  0  0
    4.1689   -0.7449    0.0000 O   0  0  0  0  0  0  0  0  0  0  0  0
    4.8811   -1.8884    0.0000 C   0  0  0  0  0  0  0  0  0  0  0  0
    4.9661   -0.5424    0.0000 C   0  0  0  0  0  0  0  0  0  0  0  0
    5.4105   -1.2480    0.0000 N   0  0  0  0  0  0  0  0  0  0  0  0
    5.2732    0.2352    0.0000 O   0  0  0  0  0  0  0  0  0  0  0  0
    6.2337   -1.3003    0.0000 C   0  0  0  0  0  0  0  0  0  0  0  0
    6.5866   -2.0387    0.0000 C   0  0  0  0  0  0  0  0  0  0  0  0
    6.6911   -0.6077    0.0000 C   0  0  0  0  0  0  0  0  0  0  0  0
    7.4099   -2.0910    0.0000 C   0  0  0  0  0  0  0  0  0  0  0  0
    7.5145   -0.6600    0.0000 C   0  0  0  0  0  0  0  0  0  0  0  0
    7.8673   -1.3984    0.0000 C   0  0  0  0  0  0  0  0  0  0  0  0
    8.6907   -1.4506    0.0000 N   0  0  0  0  0  0  0  0  0  0  0  0
    9.1481   -0.7580    0.0000 C   0  0  0  0  0  0  0  0  0  0  0  0
    9.0435   -2.1890    0.0000 C   0  0  0  0  0  0  0  0  0  0  0  0
    8.7821   -0.0066    0.0000 O   0  0  0  0  0  0  0  0  0  0  0  0
    9.9714   -0.8102    0.0000 C   0  0  0  0  0  0  0  0  0  0  0  0
    9.8669   -2.2413    0.0000 C   0  0  0  0  0  0  0  0  0  0  0  0
   10.3243   -1.5486    0.0000 O   0  0  0  0  0  0  0  0  0  0  0  0
  1  2  1  0  0  0  0
  2  3  1  0  0  0  0
  2  4  2  0  0  0  0
  3  5  1  0  0  0  0
  4  6  1  0  0  0  0
  5  7  1  0  0  0  0
  7  8  2  0  0  0  0
  7  9  1  0  0  0  0
  9 10  1  0  0  0  0
 11 10  1  6  0  0  0
 11 12  1  0  0  0  0
 11 13  1  0  0  0  0
 12 14  1  0  0  0  0
 13 15  1  0  0  0  0
 14 16  2  0  0  0  0
 15 17  1  0  0  0  0
 17 18  2  0  0  0  0
 17 19  1  0  0  0  0
 18 20  1  0  0  0  0
 19 21  2  0  0  0  0
 20 22  2  0  0  0  0
 22 23  1  0  0  0  0
 23 24  1  0  0  0  0
 23 25  1  0  0  0  0
 24 26  2  0  0  0  0
 24 27  1  0  0  0  0
 25 28  1  0  0  0  0
 27 29  1  0  0  0  0
  5  6  2  0  0  0  0
 14 15  1  0  0  0  0
 21 22  1  0  0  0  0
 28 29  1  0  0  0  0
M  END

>  <name>
Rivaroxaban

>  <ROTATABLE_BONDCOUNT>
5

>  <HBDScore>
0.8333333333333334

>  <dipole>
3.25

>  <logD>
1.90

>  <MPOScore>
5.291333333333333

>  <logDScore>
1.0

>  <MW>
435.88

>  <charge_dist(7.4)>
-0.00

>  <CNS>
FALSE

>  <ArRings>
2

>  <HBD>
1

>  <BALABAN_INDEX>
1.12

>  <bpKa>
-1.6

>  <TPSAScore>
1.0

>  <MWScore>
0.4580000000000001

>  <bpKaScore>
1.0

>  <logPScore>
1.0

>  <MPO_area>
77.88

>  <TPSA>
88.18

>  <logP>
1.90

$$$$

  Mrv1722703221715202D          

 26 28  0  0  0  0            999 V2000
    0.0000    0.0000    0.0000 Cl  0  0  0  0  0  0  0  0  0  0  0  0
    0.1156    0.8217    0.0000 C   0  0  0  0  0  0  0  0  0  0  0  0
   -0.5328    1.3416    0.0000 C   0  0  0  0  0  0  0  0  0  0  0  0
    0.8730    1.1298    0.0000 C   0  0  0  0  0  0  0  0  0  0  0  0
   -1.3031    1.0464    0.0000 N   0  0  0  0  0  0  0  0  0  0  0  0
   -0.4173    2.1633    0.0000 C   0  0  0  0  0  0  0  0  0  0  0  0
    0.9886    1.9515    0.0000 N   0  0  0  0  0  0  0  0  0  0  0  0
   -1.9515    1.5663    0.0000 C   0  0  0  0  0  0  0  0  0  0  0  0
   -1.0656    2.6833    0.0000 Cl  0  0  0  0  0  0  0  0  0  0  0  0
    0.3402    2.4715    0.0000 C   0  0  0  0  0  0  0  0  0  0  0  0
   -1.8359    2.3880    0.0000 O   0  0  0  0  0  0  0  0  0  0  0  0
   -2.7218    1.2710    0.0000 C   0  0  0  0  0  0  0  0  0  0  0  0
   -3.3701    1.7910    0.0000 C   0  0  0  0  0  0  0  0  0  0  0  0
   -2.8502    0.4622    0.0000 C   0  0  0  0  0  0  0  0  0  0  0  0
   -4.1405    1.4957    0.0000 C   0  0  0  0  0  0  0  0  0  0  0  0
   -3.6205    0.1669    0.0000 C   0  0  0  0  0  0  0  0  0  0  0  0
   -4.7888    2.0157    0.0000 O   0  0  0  0  0  0  0  0  0  0  0  0
   -4.2689    0.6869    0.0000 C   0  0  0  0  0  0  0  0  0  0  0  0
   -4.6733    2.8373    0.0000 C   0  0  0  0  0  0  0  0  0  0  0  0
   -5.0392    0.3916    0.0000 O   0  0  0  0  0  0  0  0  0  0  0  0
   -5.3216    3.3573    0.0000 C   0  0  0  0  0  0  0  0  0  0  0  0
   -5.1676   -0.4173    0.0000 C   0  0  0  0  0  0  0  0  0  0  0  0
   -5.6298    4.1276    0.0000 C   0  0  0  0  0  0  0  0  0  0  0  0
   -6.1433    3.4857    0.0000 C   0  0  0  0  0  0  0  0  0  0  0  0
   -5.9379   -0.7125    0.0000 F   0  0  0  0  0  0  0  0  0  0  0  0
   -4.5321   -0.9244    0.0000 F   0  0  0  0  0  0  0  0  0  0  0  0
  1  2  1  0  0  0  0
  2  3  2  0  0  0  0
  2  4  1  0  0  0  0
  3  5  1  0  0  0  0
  3  6  1  0  0  0  0
  4  7  2  0  0  0  0
  5  8  1  0  0  0  0
  6  9  1  0  0  0  0
  6 10  2  0  0  0  0
  8 11  2  0  0  0  0
  8 12  1  0  0  0  0
 12 13  2  0  0  0  0
 12 14  1  0  0  0  0
 13 15  1  0  0  0  0
 14 16  2  0  0  0  0
 15 17  1  0  0  0  0
 15 18  2  0  0  0  0
 17 19  1  0  0  0  0
 18 20  1  0  0  0  0
 19 21  1  0  0  0  0
 20 22  1  0  0  0  0
 21 23  1  0  0  0  0
 21 24  1  0  0  0  0
 22 25  1  0  0  0  0
 22 26  1  0  0  0  0
  7 10  1  0  0  0  0
 16 18  1  0  0  0  0
 23 24  1  0  0  0  0
M  END

>  <name>
Roflumilast

>  <ROTATABLE_BONDCOUNT>
7

>  <HBDScore>
0.8333333333333334

>  <dipole>
5.69

>  <logD>
4.45

>  <MPOScore>
3.7996904761904764

>  <logDScore>
0.0

>  <MW>
403.21

>  <charge_dist(7.4)>
0.00

>  <CNS>
FALSE

>  <ArRings>
2

>  <HBD>
1

>  <BALABAN_INDEX>
1.54

>  <bpKa>
2.4

>  <TPSAScore>
1.0

>  <MWScore>
0.691357142857143

>  <bpKaScore>
1.0

>  <logPScore>
0.2749999999999999

>  <MPO_area>
43.33

>  <TPSA>
60.45

>  <logP>
4.45

$$$$

  Mrv1722703221715202D          

 25 27  0  0  0  0            999 V2000
    0.0000    0.0000    0.0000 S   0  0  0  0  0  0  0  0  0  0  0  0
   -0.6103    0.5778    0.0000 C   0  0  0  0  0  0  0  0  0  0  0  0
    0.7207    0.4026    0.0000 C   0  0  2  0  0  0  0  0  0  0  0  0
   -1.4284    0.4350    0.0000 O   0  0  0  0  0  0  0  0  0  0  0  0
   -0.2597    1.3310    0.0000 N   0  0  0  0  0  0  0  0  0  0  0  0
    0.5648    1.2206    0.0000 C   0  0  0  0  0  0  0  0  0  0  0  0
    1.4609    0.0520    0.0000 C   0  0  0  0  0  0  0  0  0  0  0  0
    1.1297    1.8310    0.0000 O   0  0  0  0  0  0  0  0  0  0  0  0
    2.1361    0.5259    0.0000 C   0  0  0  0  0  0  0  0  0  0  0  0
    2.8763    0.1753    0.0000 C   0  0  0  0  0  0  0  0  0  0  0  0
    2.0647    1.3570    0.0000 C   0  0  0  0  0  0  0  0  0  0  0  0
    3.5516    0.6493    0.0000 C   0  0  0  0  0  0  0  0  0  0  0  0
    2.7400    1.8310    0.0000 C   0  0  0  0  0  0  0  0  0  0  0  0
    3.4801    1.4804    0.0000 C   0  0  0  0  0  0  0  0  0  0  0  0
    4.1554    1.9543    0.0000 O   0  0  0  0  0  0  0  0  0  0  0  0
    4.8956    1.6037    0.0000 C   0  0  0  0  0  0  0  0  0  0  0  0
    5.5708    2.0777    0.0000 C   0  0  0  0  0  0  0  0  0  0  0  0
    6.3110    1.7271    0.0000 N   0  0  0  0  0  0  0  0  0  0  0  0
    6.3694    0.9090    0.0000 C   0  0  0  0  0  0  0  0  0  0  0  0
    6.9863    2.2010    0.0000 C   0  0  0  0  0  0  0  0  0  0  0  0
    5.6812    0.4480    0.0000 N   0  0  0  0  0  0  0  0  0  0  0  0
    7.1096    0.5584    0.0000 C   0  0  0  0  0  0  0  0  0  0  0  0
    5.7396   -0.3701    0.0000 C   0  0  0  0  0  0  0  0  0  0  0  0
    7.1680   -0.2597    0.0000 C   0  0  0  0  0  0  0  0  0  0  0  0
    6.4798   -0.7207    0.0000 C   0  0  0  0  0  0  0  0  0  0  0  0
  1  2  1  0  0  0  0
  1  3  1  0  0  0  0
  2  4  2  0  0  0  0
  2  5  1  0  0  0  0
  3  6  1  0  0  0  0
  3  7  1  6  0  0  0
  6  8  2  0  0  0  0
  7  9  1  0  0  0  0
  9 10  2  0  0  0  0
  9 11  1  0  0  0  0
 10 12  1  0  0  0  0
 11 13  2  0  0  0  0
 12 14  2  0  0  0  0
 14 15  1  0  0  0  0
 15 16  1  0  0  0  0
 16 17  1  0  0  0  0
 17 18  1  0  0  0  0
 18 19  1  0  0  0  0
 18 20  1  0  0  0  0
 19 21  2  0  0  0  0
 19 22  1  0  0  0  0
 21 23  1  0  0  0  0
 22 24  2  0  0  0  0
 23 25  2  0  0  0  0
  5  6  1  0  0  0  0
 13 14  1  0  0  0  0
 24 25  1  0  0  0  0
M  END

>  <name>
Rosiglitazone

>  <ROTATABLE_BONDCOUNT>
7

>  <HBDScore>
0.8333333333333334

>  <dipole>
2.12

>  <logD>
2.21

>  <MPOScore>
5.7283333333333335

>  <logDScore>
0.895

>  <MW>
357.43

>  <charge_dist(7.4)>
-0.80

>  <CNS>
FALSE

>  <ArRings>
2

>  <HBD>
1

>  <BALABAN_INDEX>
1.13

>  <bpKa>
6.23

>  <TPSAScore>
1.0

>  <MWScore>
1.0

>  <bpKaScore>
1.0

>  <logPScore>
1.0

>  <MPO_area>
91.24

>  <TPSA>
71.53

>  <logP>
2.45

$$$$

  Mrv1722703221715202D          

 33 34  0  0  0  0            999 V2000
    0.0000    0.0000    0.0000 S   0  0  0  0  0  0  0  0  0  0  0  0
    0.8015   -0.1908    0.0000 O   0  0  0  0  0  0  0  0  0  0  0  0
   -0.8142    0.2036    0.0000 O   0  0  0  0  0  0  0  0  0  0  0  0
    0.1908    0.8142    0.0000 N   0  0  0  0  0  0  0  0  0  0  0  0
   -0.2036   -0.8015    0.0000 C   0  0  0  0  0  0  0  0  0  0  0  0
    0.9796    1.0560    0.0000 C   0  0  0  0  0  0  0  0  0  0  0  0
   -0.4198    1.3931    0.0000 C   0  0  0  0  0  0  0  0  0  0  0  0
    1.1705    1.8702    0.0000 N   0  0  0  0  0  0  0  0  0  0  0  0
    1.5776    0.4898    0.0000 N   0  0  0  0  0  0  0  0  0  0  0  0
    1.9592    2.1119    0.0000 C   0  0  0  0  0  0  0  0  0  0  0  0
    2.3664    0.7315    0.0000 C   0  0  0  0  0  0  0  0  0  0  0  0
    2.1501    2.9261    0.0000 C   0  0  0  0  0  0  0  0  0  0  0  0
    2.5572    1.5458    0.0000 C   0  0  0  0  0  0  0  0  0  0  0  0
    2.9643    0.1654    0.0000 C   0  0  0  0  0  0  0  0  0  0  0  0
    2.9389    3.1679    0.0000 C   0  0  0  0  0  0  0  0  0  0  0  0
    1.5394    3.5050    0.0000 C   0  0  0  0  0  0  0  0  0  0  0  0
    3.3460    1.7875    0.0000 C   0  0  0  0  0  0  0  0  0  0  0  0
    2.7608   -0.6361    0.0000 C   0  0  0  0  0  0  0  0  0  0  0  0
    3.7531    0.4071    0.0000 C   0  0  0  0  0  0  0  0  0  0  0  0
    3.1297    3.9821    0.0000 C   0  0  0  0  0  0  0  0  0  0  0  0
    1.7302    4.3192    0.0000 C   0  0  0  0  0  0  0  0  0  0  0  0
    3.9439    1.2214    0.0000 C   0  0  0  0  0  0  0  0  0  0  0  0
    2.5190    4.5610    0.0000 C   0  0  0  0  0  0  0  0  0  0  0  0
    4.7327    1.4631    0.0000 C   0  0  1  0  0  0  0  0  0  0  0  0
    2.7099    5.3752    0.0000 F   0  0  0  0  0  0  0  0  0  0  0  0
    4.9236    2.2773    0.0000 O   0  0  0  0  0  0  0  0  0  0  0  0
    5.3307    0.8969    0.0000 C   0  0  0  0  0  0  0  0  0  0  0  0
    6.1195    1.1386    0.0000 C   0  0  1  0  0  0  0  0  0  0  0  0
    6.3103    1.9529    0.0000 O   0  0  0  0  0  0  0  0  0  0  0  0
    6.7174    0.5725    0.0000 C   0  0  0  0  0  0  0  0  0  0  0  0
    7.5062    0.8142    0.0000 C   0  0  0  0  0  0  0  0  0  0  0  0
    7.6971    1.6285    0.0000 O   0  0  0  0  0  0  0  0  0  0  0  0
    8.1042    0.2481    0.0000 O   0  0  0  0  0  0  0  0  0  0  0  0
  1  2  2  0  0  0  0
  1  3  2  0  0  0  0
  1  4  1  0  0  0  0
  1  5  1  0  0  0  0
  4  6  1  0  0  0  0
  4  7  1  0  0  0  0
  6  8  2  0  0  0  0
  6  9  1  0  0  0  0
  8 10  1  0  0  0  0
  9 11  2  0  0  0  0
 10 12  1  0  0  0  0
 10 13  2  0  0  0  0
 11 14  1  0  0  0  0
 12 15  2  0  0  0  0
 12 16  1  0  0  0  0
 13 17  1  0  0  0  0
 14 18  1  0  0  0  0
 14 19  1  0  0  0  0
 15 20  1  0  0  0  0
 16 21  2  0  0  0  0
 17 22  2  0  0  0  0
 20 23  2  0  0  0  0
 22 24  1  0  0  0  0
 23 25  1  0  0  0  0
 24 26  1  1  0  0  0
 24 27  1  0  0  0  0
 27 28  1  0  0  0  0
 28 29  1  1  0  0  0
 28 30  1  0  0  0  0
 30 31  1  0  0  0  0
 31 32  2  0  0  0  0
 31 33  1  0  0  0  0
 11 13  1  0  0  0  0
 21 23  1  0  0  0  0
M  END

>  <name>
Rosuvastatin

>  <ROTATABLE_BONDCOUNT>
9

>  <HBDScore>
0.16666666666666674

>  <dipole>
2.32

>  <logD>
-1.24

>  <MPOScore>
3.298523809523809

>  <logDScore>
1.0

>  <MW>
481.54

>  <charge_dist(7.4)>
-1.00

>  <CNS>
FALSE

>  <ArRings>
2

>  <HBD>
3

>  <BALABAN_INDEX>
2.10

>  <bpKa>
-2.84

>  <TPSAScore>
0.0

>  <MWScore>
0.13185714285714278

>  <bpKaScore>
1.0

>  <logPScore>
1.0

>  <MPO_area>
36.48

>  <TPSA>
140.92

>  <logP>
1.92

$$$$

  Mrv1722703221715202D          

 23 26  0  0  0  0            999 V2000
    0.0000    0.0000    0.0000 N   0  0  0  0  0  0  0  0  0  0  0  0
   -0.7057    0.4338    0.0000 C   0  0  0  0  0  0  0  0  0  0  0  0
   -1.4114    0.8676    0.0000 C   0  0  0  0  0  0  0  0  0  0  0  0
   -1.3985    1.6963    0.0000 C   0  0  2  0  0  0  0  0  0  0  0  0
   -2.1041    2.1301    0.0000 N   0  0  0  0  0  0  0  0  0  0  0  0
   -0.6798    2.0977    0.0000 C   0  0  0  0  0  0  0  0  0  0  0  0
   -2.1754    2.9588    0.0000 N   0  0  0  0  0  0  0  0  0  0  0  0
   -2.8681    1.8193    0.0000 C   0  0  0  0  0  0  0  0  0  0  0  0
    0.0583    1.7481    0.0000 C   0  0  0  0  0  0  0  0  0  0  0  0
   -0.5762    2.9199    0.0000 C   0  0  0  0  0  0  0  0  0  0  0  0
   -2.9847    3.1595    0.0000 C   0  0  0  0  0  0  0  0  0  0  0  0
   -3.4120    2.4538    0.0000 C   0  0  0  0  0  0  0  0  0  0  0  0
    0.6150    2.3502    0.0000 C   0  0  0  0  0  0  0  0  0  0  0  0
    0.2266    3.0753    0.0000 C   0  0  0  0  0  0  0  0  0  0  0  0
   -4.2407    2.3955    0.0000 C   0  0  0  0  0  0  0  0  0  0  0  0
   -4.7133    3.0818    0.0000 N   0  0  0  0  0  0  0  0  0  0  0  0
   -4.6033    1.6574    0.0000 C   0  0  0  0  0  0  0  0  0  0  0  0
   -5.5420    3.0235    0.0000 C   0  0  0  0  0  0  0  0  0  0  0  0
   -5.4320    1.5992    0.0000 C   0  0  0  0  0  0  0  0  0  0  0  0
   -4.2925    0.9064    0.0000 C   0  0  0  0  0  0  0  0  0  0  0  0
   -5.9046    2.2854    0.0000 N   0  0  0  0  0  0  0  0  0  0  0  0
   -5.6327    0.8028    0.0000 N   0  0  0  0  0  0  0  0  0  0  0  0
   -4.9270    0.3755    0.0000 C   0  0  0  0  0  0  0  0  0  0  0  0
  1  2  3  0  0  0  0
  2  3  1  0  0  0  0
  3  4  1  0  0  0  0
  4  5  1  6  0  0  0
  4  6  1  0  0  0  0
  5  7  1  0  0  0  0
  5  8  1  0  0  0  0
  6  9  1  0  0  0  0
  6 10  1  0  0  0  0
  7 11  2  0  0  0  0
  8 12  2  0  0  0  0
  9 13  1  0  0  0  0
 10 14  1  0  0  0  0
 12 15  1  0  0  0  0
 15 16  2  0  0  0  0
 15 17  1  0  0  0  0
 16 18  1  0  0  0  0
 17 19  2  0  0  0  0
 17 20  1  0  0  0  0
 18 21  2  0  0  0  0
 19 22  1  0  0  0  0
 20 23  2  0  0  0  0
 11 12  1  0  0  0  0
 13 14  1  0  0  0  0
 19 21  1  0  0  0  0
 22 23  1  0  0  0  0
M  END

>  <name>
Ruxolitinib

>  <ROTATABLE_BONDCOUNT>
4

>  <HBDScore>
0.8333333333333334

>  <dipole>
7.84

>  <logD>
2.48

>  <MPOScore>
5.593333333333333

>  <logDScore>
0.76

>  <MW>
306.373

>  <charge_dist(7.4)>
0.00

>  <CNS>
FALSE

>  <ArRings>
3

>  <HBD>
1

>  <BALABAN_INDEX>
1.34

>  <bpKa>
3.91

>  <TPSAScore>
1.0

>  <MWScore>
1.0

>  <bpKaScore>
1.0

>  <logPScore>
1.0

>  <MPO_area>
87.11

>  <TPSA>
83.18

>  <logP>
2.48

$$$$

  Mrv1722703221715202D          

 17 18  0  0  0  0            999 V2000
    0.0000    0.0000    0.0000 O   0  0  0  0  0  0  0  0  0  0  0  0
   -0.1419   -0.8127    0.0000 C   0  0  0  0  0  0  0  0  0  0  0  0
   -0.9288   -1.0965    0.0000 N   0  0  0  0  0  0  0  0  0  0  0  0
    0.4902   -1.3351    0.0000 C   0  0  0  0  0  0  0  0  0  0  0  0
   -1.0707   -1.9091    0.0000 C   0  0  0  0  0  0  0  0  0  0  0  0
    1.2642   -1.0384    0.0000 N   0  0  0  0  0  0  0  0  0  0  0  0
    0.3483   -2.1478    0.0000 C   0  0  0  0  0  0  0  0  0  0  0  0
   -0.4386   -2.4316    0.0000 N   0  0  0  0  0  0  0  0  0  0  0  0
   -1.8576   -2.1929    0.0000 N   0  0  0  0  0  0  0  0  0  0  0  0
    1.8963   -1.5608    0.0000 C   0  0  2  0  0  0  0  0  0  0  0  0
    0.9804   -2.6702    0.0000 N   0  0  0  0  0  0  0  0  0  0  0  0
    2.6702   -1.2642    0.0000 C   0  0  2  0  0  0  0  0  0  0  0  0
    1.7544   -2.3735    0.0000 C   0  0  0  0  0  0  0  0  0  0  0  0
    2.7992   -0.4386    0.0000 O   0  0  0  0  0  0  0  0  0  0  0  0
    3.3023   -1.7866    0.0000 C   0  0  2  0  0  0  0  0  0  0  0  0
    3.1604   -2.5993    0.0000 O   0  0  0  0  0  0  0  0  0  0  0  0
    4.0763   -1.4899    0.0000 C   0  0  0  0  0  0  0  0  0  0  0  0
  1  2  2  0  0  0  0
  2  3  1  0  0  0  0
  2  4  1  0  0  0  0
  3  5  2  0  0  0  0
  4  6  1  0  0  0  0
  4  7  2  0  0  0  0
  5  8  1  0  0  0  0
  5  9  1  0  0  0  0
 10  6  1  6  0  0  0
  7 11  1  0  0  0  0
 10 12  1  0  0  0  0
 10 13  1  0  0  0  0
 12 14  1  6  0  0  0
 12 15  1  0  0  0  0
 15 16  1  1  0  0  0
 15 17  1  0  0  0  0
  7  8  1  0  0  0  0
 11 13  1  0  0  0  0
M  END

>  <name>
Sapropterin

>  <ROTATABLE_BONDCOUNT>
2

>  <HBDScore>
0.0

>  <dipole>
11.70

>  <logD>
-2.66

>  <MPOScore>
4.0

>  <logDScore>
1.0

>  <MW>
241.251

>  <charge_dist(7.4)>
0.00

>  <CNS>
FALSE

>  <ArRings>
1

>  <HBD>
6

>  <BALABAN_INDEX>
1.98

>  <bpKa>
1.58

>  <TPSAScore>
0.0

>  <MWScore>
1.0

>  <bpKaScore>
1.0

>  <logPScore>
1.0

>  <MPO_area>
50.0

>  <TPSA>
132.00

>  <logP>
-2.66

$$$$

  Mrv1722703221715202D          

 49 53  0  0  0  0            999 V2000
    0.0000    0.0000    0.0000 O   0  0  0  0  0  0  0  0  0  0  0  0
    0.7254    0.3921    0.0000 C   0  0  0  0  0  0  0  0  0  0  0  0
    0.7515    1.2285    0.0000 N   0  0  0  0  0  0  0  0  0  0  0  0
    1.4246   -0.0457    0.0000 C   0  0  0  0  0  0  0  0  0  0  0  0
    0.0392    1.6794    0.0000 C   0  0  2  0  0  0  0  0  0  0  0  0
    2.1499    0.3463    0.0000 N   0  0  0  0  0  0  0  0  0  0  0  0
    1.3854   -0.8691    0.0000 C   0  0  0  0  0  0  0  0  0  0  0  0
   -0.6992    1.3004    0.0000 C   0  0  0  0  0  0  0  0  0  0  0  0
    0.0653    2.5159    0.0000 C   0  0  0  0  0  0  0  0  0  0  0  0
    2.8492   -0.0915    0.0000 C   0  0  0  0  0  0  0  0  0  0  0  0
    2.0846   -1.3070    0.0000 C   0  0  0  0  0  0  0  0  0  0  0  0
   -0.7385    0.4771    0.0000 O   0  0  0  0  0  0  0  0  0  0  0  0
   -1.4115    1.7513    0.0000 N   0  0  0  0  0  0  0  0  0  0  0  0
   -0.6469    2.9668    0.0000 C   0  0  0  0  0  0  0  0  0  0  0  0
    2.8100   -0.9149    0.0000 C   0  0  0  0  0  0  0  0  0  0  0  0
    3.5745    0.3006    0.0000 C   0  0  0  0  0  0  0  0  0  0  0  0
   -2.1499    1.3723    0.0000 C   0  0  2  0  0  0  0  0  0  0  0  0
   -1.3854    2.5878    0.0000 O   0  0  0  0  0  0  0  0  0  0  0  0
   -0.6208    3.8032    0.0000 N   0  0  0  0  0  0  0  0  0  0  0  0
    3.5092   -1.3527    0.0000 C   0  0  0  0  0  0  0  0  0  0  0  0
    4.2738   -0.1372    0.0000 C   0  0  0  0  0  0  0  0  0  0  0  0
   -2.1892    0.5489    0.0000 C   0  0  2  0  0  0  0  0  0  0  0  0
   -2.8622    1.8232    0.0000 C   0  0  0  0  0  0  0  0  0  0  0  0
    4.2346   -0.9606    0.0000 C   0  0  0  0  0  0  0  0  0  0  0  0
   -1.4899    0.1111    0.0000 O   0  0  0  0  0  0  0  0  0  0  0  0
   -2.9276    0.1699    0.0000 C   0  0  0  0  0  0  0  0  0  0  0  0
   -2.8361    2.6596    0.0000 C   0  0  0  0  0  0  0  0  0  0  0  0
   -2.9668   -0.6535    0.0000 N   0  0  0  0  0  0  0  0  0  0  0  0
   -3.5484    3.1106    0.0000 C   0  0  0  0  0  0  0  0  0  0  0  0
   -2.1107    3.0518    0.0000 C   0  0  0  0  0  0  0  0  0  0  0  0
   -3.7052   -1.0325    0.0000 C   0  0  2  0  0  0  0  0  0  0  0  0
   -2.2676   -1.0913    0.0000 C   0  0  0  0  0  0  0  0  0  0  0  0
   -3.5222    3.9470    0.0000 C   0  0  0  0  0  0  0  0  0  0  0  0
   -2.0846    3.8882    0.0000 C   0  0  0  0  0  0  0  0  0  0  0  0
   -4.4175   -0.5816    0.0000 C   0  0  0  0  0  0  0  0  0  0  0  0
   -3.7444   -1.8559    0.0000 C   0  0  0  0  0  0  0  0  0  0  0  0
   -2.3068   -1.9147    0.0000 C   0  0  2  0  0  0  0  0  0  0  0  0
   -2.7969    4.3391    0.0000 C   0  0  0  0  0  0  0  0  0  0  0  0
   -4.3914    0.2549    0.0000 O   0  0  0  0  0  0  0  0  0  0  0  0
   -5.1559   -0.9606    0.0000 N   0  0  0  0  0  0  0  0  0  0  0  0
   -3.0452   -2.2937    0.0000 C   0  0  1  0  0  0  0  0  0  0  0  0
   -1.6076   -2.3525    0.0000 C   0  0  0  0  0  0  0  0  0  0  0  0
   -5.8682   -0.5097    0.0000 C   0  0  0  0  0  0  0  0  0  0  0  0
   -3.0844   -3.1171    0.0000 C   0  0  0  0  0  0  0  0  0  0  0  0
   -1.6468   -3.1759    0.0000 C   0  0  0  0  0  0  0  0  0  0  0  0
   -6.3191   -1.2089    0.0000 C   0  0  0  0  0  0  0  0  0  0  0  0
   -5.4304    0.2026    0.0000 C   0  0  0  0  0  0  0  0  0  0  0  0
   -6.5805   -0.0588    0.0000 C   0  0  0  0  0  0  0  0  0  0  0  0
   -2.3852   -3.5549    0.0000 C   0  0  0  0  0  0  0  0  0  0  0  0
  1  2  2  0  0  0  0
  2  3  1  0  0  0  0
  2  4  1  0  0  0  0
  5  3  1  6  0  0  0
  4  6  2  0  0  0  0
  4  7  1  0  0  0  0
  5  8  1  0  0  0  0
  5  9  1  0  0  0  0
  6 10  1  0  0  0  0
  7 11  2  0  0  0  0
  8 12  2  0  0  0  0
  8 13  1  0  0  0  0
  9 14  1  0  0  0  0
 10 15  2  0  0  0  0
 10 16  1  0  0  0  0
 17 13  1  6  0  0  0
 14 18  2  0  0  0  0
 14 19  1  0  0  0  0
 15 20  1  0  0  0  0
 16 21  2  0  0  0  0
 17 22  1  0  0  0  0
 17 23  1  0  0  0  0
 20 24  2  0  0  0  0
 22 25  1  6  0  0  0
 22 26  1  0  0  0  0
 23 27  1  0  0  0  0
 26 28  1  0  0  0  0
 27 29  2  0  0  0  0
 27 30  1  0  0  0  0
 28 31  1  0  0  0  0
 28 32  1  0  0  0  0
 29 33  1  0  0  0  0
 30 34  2  0  0  0  0
 31 35  1  1  0  0  0
 31 36  1  0  0  0  0
 37 32  1  1  0  0  0
 33 38  2  0  0  0  0
 35 39  2  0  0  0  0
 35 40  1  0  0  0  0
 41 36  1  1  0  0  0
 37 42  1  0  0  0  0
 40 43  1  0  0  0  0
 41 44  1  0  0  0  0
 42 45  1  0  0  0  0
 43 46  1  0  0  0  0
 43 47  1  0  0  0  0
 43 48  1  0  0  0  0
 44 49  1  0  0  0  0
 11 15  1  0  0  0  0
 21 24  1  0  0  0  0
 34 38  1  0  0  0  0
 37 41  1  0  0  0  0
 45 49  1  0  0  0  0
M  END

>  <name>
Saquinavir

>  <ROTATABLE_BONDCOUNT>
13

>  <HBDScore>
0.0

>  <dipole>
7.81

>  <logD>
2.05

>  <MPOScore>
2.6599999999999997

>  <logDScore>
0.9750000000000001

>  <MW>
670.855

>  <charge_dist(7.4)>
0.92

>  <CNS>
FALSE

>  <ArRings>
3

>  <HBD>
5

>  <BALABAN_INDEX>
1.16

>  <bpKa>
8.47

>  <TPSAScore>
0.0

>  <MWScore>
0.0

>  <bpKaScore>
0.7649999999999997

>  <logPScore>
0.9199999999999999

>  <MPO_area>
26.68

>  <TPSA>
166.75

>  <logP>
3.16

$$$$

  Mrv1722703221715202D          

 19 20  0  0  0  0            999 V2000
    0.0000    0.0000    0.0000 Cl  0  0  0  0  0  0  0  0  0  0  0  0
   -0.7667    0.3131    0.0000 C   0  0  0  0  0  0  0  0  0  0  0  0
   -1.4184   -0.1853    0.0000 C   0  0  0  0  0  0  0  0  0  0  0  0
   -0.8881    1.1309    0.0000 C   0  0  0  0  0  0  0  0  0  0  0  0
   -2.1851    0.1278    0.0000 C   0  0  0  0  0  0  0  0  0  0  0  0
   -1.6548    1.4440    0.0000 C   0  0  0  0  0  0  0  0  0  0  0  0
   -2.3065    0.9456    0.0000 C   0  0  0  0  0  0  0  0  0  0  0  0
   -3.0732    1.2586    0.0000 C   0  0  0  0  0  0  0  0  0  0  0  0
   -3.3863    0.5048    0.0000 C   0  0  1  0  0  0  0  0  0  0  0  0
   -2.7729    2.0254    0.0000 C   0  0  0  0  0  0  0  0  0  0  0  0
   -3.8399    1.5717    0.0000 C   0  0  0  0  0  0  0  0  0  0  0  0
   -4.2040    0.3961    0.0000 N   0  0  0  0  0  0  0  0  0  0  0  0
   -2.8879   -0.1342    0.0000 C   0  0  0  0  0  0  0  0  0  0  0  0
   -3.5396    2.3384    0.0000 C   0  0  0  0  0  0  0  0  0  0  0  0
   -4.5171   -0.3578    0.0000 C   0  0  0  0  0  0  0  0  0  0  0  0
   -4.7152    1.0478    0.0000 C   0  0  0  0  0  0  0  0  0  0  0  0
   -3.2009   -0.8881    0.0000 C   0  0  0  0  0  0  0  0  0  0  0  0
   -2.7026   -1.5270    0.0000 C   0  0  0  0  0  0  0  0  0  0  0  0
   -4.0188   -0.9967    0.0000 C   0  0  0  0  0  0  0  0  0  0  0  0
  1  2  1  0  0  0  0
  2  3  2  0  0  0  0
  2  4  1  0  0  0  0
  3  5  1  0  0  0  0
  4  6  2  0  0  0  0
  5  7  2  0  0  0  0
  7  8  1  0  0  0  0
  8  9  1  0  0  0  0
  8 10  1  0  0  0  0
  8 11  1  0  0  0  0
  9 12  1  6  0  0  0
  9 13  1  0  0  0  0
 10 14  1  0  0  0  0
 12 15  1  0  0  0  0
 12 16  1  0  0  0  0
 13 17  1  0  0  0  0
 17 18  1  0  0  0  0
 17 19  1  0  0  0  0
  6  7  1  0  0  0  0
 11 14  1  0  0  0  0
M  END

>  <name>
Sibutramine

>  <ROTATABLE_BONDCOUNT>
5

>  <HBDScore>
1.0

>  <dipole>
1.86

>  <logD>
2.86

>  <MPOScore>
2.6850000000000005

>  <logDScore>
0.5700000000000001

>  <MW>
279.85

>  <charge_dist(7.4)>
1.00

>  <CNS>
FALSE

>  <ArRings>
1

>  <HBD>
0

>  <BALABAN_INDEX>
1.89

>  <bpKa>
9.77

>  <TPSAScore>
0.0

>  <MWScore>
1.0

>  <bpKaScore>
0.11500000000000021

>  <logPScore>
0.0

>  <MPO_area>
27.26

>  <TPSA>
3.24

>  <logP>
5.20

$$$$

  Mrv1722703221715202D          

 33 36  0  0  0  0            999 V2000
    0.0000    0.0000    0.0000 S   0  0  0  0  0  0  0  0  0  0  0  0
    0.2874    0.7839    0.0000 O   0  0  0  0  0  0  0  0  0  0  0  0
   -0.3005   -0.7709    0.0000 O   0  0  0  0  0  0  0  0  0  0  0  0
   -0.7839    0.3005    0.0000 N   0  0  0  0  0  0  0  0  0  0  0  0
    0.7709   -0.2874    0.0000 C   0  0  0  0  0  0  0  0  0  0  0  0
   -0.9276    1.1236    0.0000 C   0  0  0  0  0  0  0  0  0  0  0  0
   -1.4306   -0.2221    0.0000 C   0  0  0  0  0  0  0  0  0  0  0  0
    1.4045    0.2482    0.0000 C   0  0  0  0  0  0  0  0  0  0  0  0
    0.9015   -1.0975    0.0000 C   0  0  0  0  0  0  0  0  0  0  0  0
   -1.7115    1.4241    0.0000 C   0  0  0  0  0  0  0  0  0  0  0  0
   -2.2145    0.0784    0.0000 C   0  0  0  0  0  0  0  0  0  0  0  0
    2.1754   -0.0392    0.0000 C   0  0  0  0  0  0  0  0  0  0  0  0
    1.6723   -1.3849    0.0000 C   0  0  0  0  0  0  0  0  0  0  0  0
   -2.3583    0.9015    0.0000 N   0  0  0  0  0  0  0  0  0  0  0  0
    2.8090    0.4965    0.0000 C   0  0  0  0  0  0  0  0  0  0  0  0
    2.3060   -0.8492    0.0000 C   0  0  0  0  0  0  0  0  0  0  0  0
   -3.1422    1.2020    0.0000 C   0  0  0  0  0  0  0  0  0  0  0  0
    3.5799    0.2091    0.0000 N   0  0  0  0  0  0  0  0  0  0  0  0
    2.6653    1.3196    0.0000 N   0  0  0  0  0  0  0  0  0  0  0  0
    3.0769   -1.1367    0.0000 O   0  0  0  0  0  0  0  0  0  0  0  0
    4.2136    0.7447    0.0000 C   0  0  0  0  0  0  0  0  0  0  0  0
    3.2990    1.8553    0.0000 C   0  0  0  0  0  0  0  0  0  0  0  0
    3.2075   -1.9467    0.0000 C   0  0  0  0  0  0  0  0  0  0  0  0
    4.0699    1.5678    0.0000 C   0  0  0  0  0  0  0  0  0  0  0  0
    5.0301    0.6272    0.0000 C   0  0  0  0  0  0  0  0  0  0  0  0
    3.1553    2.6784    0.0000 O   0  0  0  0  0  0  0  0  0  0  0  0
    3.9784   -2.2342    0.0000 C   0  0  0  0  0  0  0  0  0  0  0  0
    4.8015    1.9533    0.0000 N   0  0  0  0  0  0  0  0  0  0  0  0
    5.3960    1.3784    0.0000 N   0  0  0  0  0  0  0  0  0  0  0  0
    5.4025   -0.1045    0.0000 C   0  0  0  0  0  0  0  0  0  0  0  0
    4.9191    2.7829    0.0000 C   0  0  0  0  0  0  0  0  0  0  0  0
    6.2256   -0.1372    0.0000 C   0  0  0  0  0  0  0  0  0  0  0  0
    6.5980   -0.8688    0.0000 C   0  0  0  0  0  0  0  0  0  0  0  0
  1  2  2  0  0  0  0
  1  3  2  0  0  0  0
  1  4  1  0  0  0  0
  1  5  1  0  0  0  0
  4  6  1  0  0  0  0
  4  7  1  0  0  0  0
  5  8  2  0  0  0  0
  5  9  1  0  0  0  0
  6 10  1  0  0  0  0
  7 11  1  0  0  0  0
  8 12  1  0  0  0  0
  9 13  2  0  0  0  0
 10 14  1  0  0  0  0
 12 15  1  0  0  0  0
 12 16  2  0  0  0  0
 14 17  1  0  0  0  0
 15 18  2  0  0  0  0
 15 19  1  0  0  0  0
 16 20  1  0  0  0  0
 18 21  1  0  0  0  0
 19 22  1  0  0  0  0
 20 23  1  0  0  0  0
 21 24  2  0  0  0  0
 21 25  1  0  0  0  0
 22 26  2  0  0  0  0
 23 27  1  0  0  0  0
 24 28  1  0  0  0  0
 25 29  2  0  0  0  0
 25 30  1  0  0  0  0
 28 31  1  0  0  0  0
 30 32  1  0  0  0  0
 32 33  1  0  0  0  0
 11 14  1  0  0  0  0
 13 16  1  0  0  0  0
 22 24  1  0  0  0  0
 28 29  1  0  0  0  0
M  END

>  <name>
Sildenafil

>  <ROTATABLE_BONDCOUNT>
6

>  <HBDScore>
0.8333333333333334

>  <dipole>
7.94

>  <logD>
1.16

>  <MPOScore>
4.377238095238096

>  <logDScore>
1.0

>  <MW>
474.58

>  <charge_dist(7.4)>
-0.34

>  <CNS>
FALSE

>  <ArRings>
3

>  <HBD>
1

>  <BALABAN_INDEX>
1.46

>  <bpKa>
5.98

>  <TPSAScore>
0.3623333333333335

>  <MWScore>
0.18157142857142872

>  <bpKaScore>
1.0

>  <logPScore>
1.0

>  <MPO_area>
56.38

>  <TPSA>
109.13

>  <logP>
1.23

$$$$

  Mrv1722703221715202D          

 35 37  0  0  0  0            999 V2000
    0.0000    0.0000    0.0000 F   0  0  0  0  0  0  0  0  0  0  0  0
   -0.5569   -0.6087    0.0000 C   0  0  0  0  0  0  0  0  0  0  0  0
    0.0518   -1.1526    0.0000 F   0  0  0  0  0  0  0  0  0  0  0  0
   -1.1785   -0.0518    0.0000 F   0  0  0  0  0  0  0  0  0  0  0  0
   -1.1138   -1.2174    0.0000 C   0  0  0  0  0  0  0  0  0  0  0  0
   -1.9232   -1.0425    0.0000 O   0  0  0  0  0  0  0  0  0  0  0  0
   -2.4801   -1.6512    0.0000 C   0  0  0  0  0  0  0  0  0  0  0  0
   -3.2895   -1.4764    0.0000 C   0  0  0  0  0  0  0  0  0  0  0  0
   -2.2340   -2.4283    0.0000 C   0  0  0  0  0  0  0  0  0  0  0  0
   -3.5485   -0.6864    0.0000 O   0  0  0  0  0  0  0  0  0  0  0  0
   -3.8464   -2.0851    0.0000 C   0  0  0  0  0  0  0  0  0  0  0  0
   -2.7909   -3.0369    0.0000 C   0  0  0  0  0  0  0  0  0  0  0  0
   -4.3579   -0.5115    0.0000 C   0  0  0  0  0  0  0  0  0  0  0  0
   -3.6003   -2.8621    0.0000 C   0  0  0  0  0  0  0  0  0  0  0  0
   -4.6170    0.2785    0.0000 C   0  0  0  0  0  0  0  0  0  0  0  0
   -5.4264    0.4533    0.0000 N   0  0  0  0  0  0  0  0  0  0  0  0
   -5.6854    1.2432    0.0000 C   0  0  2  0  0  0  0  0  0  0  0  0
   -6.4948    1.4181    0.0000 C   0  0  0  0  0  0  0  0  0  0  0  0
   -5.1415    1.8649    0.0000 C   0  0  0  0  0  0  0  0  0  0  0  0
   -7.0517    0.8094    0.0000 C   0  0  0  0  0  0  0  0  0  0  0  0
   -6.8056    0.0324    0.0000 C   0  0  0  0  0  0  0  0  0  0  0  0
   -7.8611    0.9842    0.0000 C   0  0  0  0  0  0  0  0  0  0  0  0
   -7.3625   -0.5763    0.0000 C   0  0  0  0  0  0  0  0  0  0  0  0
   -8.4180    0.3756    0.0000 C   0  0  0  0  0  0  0  0  0  0  0  0
   -8.1719   -0.4015    0.0000 C   0  0  0  0  0  0  0  0  0  0  0  0
   -7.1164   -1.3533    0.0000 C   0  0  0  0  0  0  0  0  0  0  0  0
   -9.2469    0.3821    0.0000 C   0  0  0  0  0  0  0  0  0  0  0  0
   -8.8454   -0.8806    0.0000 N   0  0  0  0  0  0  0  0  0  0  0  0
   -7.6733   -1.9621    0.0000 O   0  0  0  0  0  0  0  0  0  0  0  0
   -6.3200   -1.5152    0.0000 N   0  0  0  0  0  0  0  0  0  0  0  0
   -9.5059   -0.3950    0.0000 C   0  0  0  0  0  0  0  0  0  0  0  0
   -8.8518   -1.6966    0.0000 C   0  0  0  0  0  0  0  0  0  0  0  0
   -9.5706   -2.1045    0.0000 C   0  0  0  0  0  0  0  0  0  0  0  0
   -9.5771   -2.9204    0.0000 C   0  0  0  0  0  0  0  0  0  0  0  0
  -10.2959   -3.3283    0.0000 O   0  0  0  0  0  0  0  0  0  0  0  0
  1  2  1  0  0  0  0
  2  3  1  0  0  0  0
  2  4  1  0  0  0  0
  2  5  1  0  0  0  0
  5  6  1  0  0  0  0
  6  7  1  0  0  0  0
  7  8  2  0  0  0  0
  7  9  1  0  0  0  0
  8 10  1  0  0  0  0
  8 11  1  0  0  0  0
  9 12  2  0  0  0  0
 10 13  1  0  0  0  0
 11 14  2  0  0  0  0
 13 15  1  0  0  0  0
 15 16  1  0  0  0  0
 17 16  1  6  0  0  0
 17 18  1  0  0  0  0
 17 19  1  0  0  0  0
 18 20  1  0  0  0  0
 20 21  2  0  0  0  0
 20 22  1  0  0  0  0
 21 23  1  0  0  0  0
 22 24  2  0  0  0  0
 23 25  2  0  0  0  0
 23 26  1  0  0  0  0
 24 27  1  0  0  0  0
 25 28  1  0  0  0  0
 26 29  2  0  0  0  0
 26 30  1  0  0  0  0
 27 31  1  0  0  0  0
 28 32  1  0  0  0  0
 32 33  1  0  0  0  0
 33 34  1  0  0  0  0
 34 35  1  0  0  0  0
 12 14  1  0  0  0  0
 24 25  1  0  0  0  0
 28 31  1  0  0  0  0
M  END

>  <name>
Silodosin

>  <ROTATABLE_BONDCOUNT>
14

>  <HBDScore>
0.16666666666666674

>  <dipole>
4.06

>  <logD>
0.83

>  <MPOScore>
3.108502380952381

>  <logDScore>
1.0

>  <MW>
495.543

>  <charge_dist(7.4)>
0.99

>  <CNS>
FALSE

>  <ArRings>
2

>  <HBD>
3

>  <BALABAN_INDEX>
1.35

>  <bpKa>
9.66

>  <TPSAScore>
0.7650000000000001

>  <MWScore>
0.0318357142857143

>  <bpKaScore>
0.16999999999999993

>  <logPScore>
0.9750000000000001

>  <MPO_area>
31.94

>  <TPSA>
97.05

>  <logP>
3.05

$$$$

  Mrv1722703221715202D          

 52 58  0  0  0  0            999 V2000
    0.0000    0.0000    0.0000 S   0  0  0  0  0  0  0  0  0  0  0  0
   -0.7877   -0.2389    0.0000 O   0  0  0  0  0  0  0  0  0  0  0  0
    0.7748    0.2518    0.0000 O   0  0  0  0  0  0  0  0  0  0  0  0
   -0.2518    0.7877    0.0000 N   0  0  0  0  0  0  0  0  0  0  0  0
    0.2389   -0.7748    0.0000 C   0  0  0  0  0  0  0  0  0  0  0  0
   -1.0589    0.9750    0.0000 C   0  0  0  0  0  0  0  0  0  0  0  0
    0.8329   -1.3236    0.0000 C   0  0  0  0  0  0  0  0  0  0  0  0
    0.0516   -1.5690    0.0000 C   0  0  0  0  0  0  0  0  0  0  0  0
   -1.6206    0.3810    0.0000 O   0  0  0  0  0  0  0  0  0  0  0  0
   -1.3107    1.7627    0.0000 C   0  0  1  0  0  0  0  0  0  0  0  0
   -1.9951    1.3042    0.0000 N   0  0  0  0  0  0  0  0  0  0  0  0
   -0.9104    2.4794    0.0000 C   0  0  2  0  0  0  0  0  0  0  0  0
   -0.4971    1.7691    0.0000 C   0  0  0  0  0  0  0  0  0  0  0  0
   -2.8151    1.1881    0.0000 C   0  0  0  0  0  0  0  0  0  0  0  0
   -0.8587    3.3058    0.0000 C   0  0  0  0  0  0  0  0  0  0  0  0
   -2.8797    0.3745    0.0000 O   0  0  0  0  0  0  0  0  0  0  0  0
   -3.6028    1.4334    0.0000 C   0  0  2  0  0  0  0  0  0  0  0  0
   -1.1622    4.0742    0.0000 C   0  0  0  0  0  0  0  0  0  0  0  0
   -4.2097    1.9951    0.0000 C   0  0  1  0  0  0  0  0  0  0  0  0
   -3.9515    0.6973    0.0000 C   0  0  0  0  0  0  0  0  0  0  0  0
   -1.7691    4.6359    0.0000 C   0  0  0  0  0  0  0  0  0  0  0  0
   -4.5132    2.7635    0.0000 C   0  0  0  0  0  0  0  0  0  0  0  0
   -4.9329    1.6013    0.0000 C   0  0  0  0  0  0  0  0  0  0  0  0
   -4.7715    0.8006    0.0000 C   0  0  1  0  0  0  0  0  0  0  0  0
   -2.5568    4.8812    0.0000 C   0  0  0  0  0  0  0  0  0  0  0  0
   -5.3332    2.6472    0.0000 O   0  0  0  0  0  0  0  0  0  0  0  0
   -4.4616    3.5899    0.0000 N   0  0  0  0  0  0  0  0  0  0  0  0
   -5.3332    0.2066    0.0000 O   0  0  0  0  0  0  0  0  0  0  0  0
   -3.3769    4.7650    0.0000 C   0  0  0  0  0  0  0  0  0  0  0  0
   -4.0612    4.3066    0.0000 C   0  0  0  0  0  0  0  0  0  0  0  0
   -5.2493    3.8352    0.0000 C   0  0  0  0  0  0  0  0  0  0  0  0
   -6.1403    0.3938    0.0000 C   0  0  0  0  0  0  0  0  0  0  0  0
   -6.7020   -0.2002    0.0000 C   0  0  0  0  0  0  0  0  0  0  0  0
   -6.3921    1.1816    0.0000 C   0  0  0  0  0  0  0  0  0  0  0  0
   -7.5091   -0.0129    0.0000 C   0  0  0  0  0  0  0  0  0  0  0  0
   -6.4631   -0.9750    0.0000 C   0  0  0  0  0  0  0  0  0  0  0  0
   -7.1992    1.3688    0.0000 C   0  0  0  0  0  0  0  0  0  0  0  0
   -7.7609    0.7748    0.0000 N   0  0  0  0  0  0  0  0  0  0  0  0
   -8.0708   -0.6069    0.0000 C   0  0  0  0  0  0  0  0  0  0  0  0
   -7.0249   -1.5690    0.0000 C   0  0  0  0  0  0  0  0  0  0  0  0
   -7.4510    2.1565    0.0000 C   0  0  0  0  0  0  0  0  0  0  0  0
   -7.8320   -1.3817    0.0000 C   0  0  0  0  0  0  0  0  0  0  0  0
   -8.8779   -0.4197    0.0000 C   0  0  0  0  0  0  0  0  0  0  0  0
   -6.9667    2.8215    0.0000 S   0  0  0  0  0  0  0  0  0  0  0  0
   -8.2323    2.4277    0.0000 N   0  0  0  0  0  0  0  0  0  0  0  0
   -8.3937   -1.9757    0.0000 O   0  0  0  0  0  0  0  0  0  0  0  0
   -7.4445    3.4995    0.0000 C   0  0  0  0  0  0  0  0  0  0  0  0
   -8.2258    3.2542    0.0000 C   0  0  0  0  0  0  0  0  0  0  0  0
   -8.1548   -2.7505    0.0000 C   0  0  0  0  0  0  0  0  0  0  0  0
   -8.8908    3.7513    0.0000 C   0  0  0  0  0  0  0  0  0  0  0  0
   -8.8005    4.5713    0.0000 C   0  0  0  0  0  0  0  0  0  0  0  0
   -9.6527    3.4349    0.0000 C   0  0  0  0  0  0  0  0  0  0  0  0
  1  2  2  0  0  0  0
  1  3  2  0  0  0  0
  1  4  1  0  0  0  0
  1  5  1  0  0  0  0
  4  6  1  0  0  0  0
  5  7  1  0  0  0  0
  5  8  1  0  0  0  0
  6  9  2  0  0  0  0
 10  6  1  1  0  0  0
 10 11  1  0  0  0  0
 10 12  1  0  0  0  0
 10 13  1  0  0  0  0
 11 14  1  0  0  0  0
 12 15  1  1  0  0  0
 14 16  2  0  0  0  0
 14 17  1  0  0  0  0
 15 18  2  0  0  0  0
 17 19  1  0  0  0  0
 17 20  1  1  0  0  0
 18 21  1  0  0  0  0
 19 22  1  0  0  0  0
 19 23  1  6  0  0  0
 20 24  1  0  0  0  0
 21 25  1  0  0  0  0
 22 26  2  0  0  0  0
 22 27  1  0  0  0  0
 24 28  1  6  0  0  0
 25 29  1  0  0  0  0
 27 30  1  0  0  0  0
 27 31  1  0  0  0  0
 28 32  1  0  0  0  0
 32 33  1  0  0  0  0
 32 34  2  0  0  0  0
 33 35  2  0  0  0  0
 33 36  1  0  0  0  0
 34 37  1  0  0  0  0
 35 38  1  0  0  0  0
 35 39  1  0  0  0  0
 36 40  2  0  0  0  0
 37 41  1  0  0  0  0
 39 42  2  0  0  0  0
 39 43  1  0  0  0  0
 41 44  1  0  0  0  0
 41 45  2  0  0  0  0
 42 46  1  0  0  0  0
 44 47  1  0  0  0  0
 45 48  1  0  0  0  0
 46 49  1  0  0  0  0
 48 50  1  0  0  0  0
 50 51  1  0  0  0  0
 50 52  1  0  0  0  0
  7  8  1  0  0  0  0
 12 13  1  0  0  0  0
 23 24  1  0  0  0  0
 29 30  1  0  0  0  0
 37 38  2  0  0  0  0
 40 42  1  0  0  0  0
 47 48  2  0  0  0  0
M  END

>  <name>
Simeprevir

>  <ROTATABLE_BONDCOUNT>
7

>  <HBDScore>
0.5

>  <dipole>
4.01

>  <logD>
3.61

>  <MPOScore>
1.9150000000000003

>  <logDScore>
0.19500000000000006

>  <MW>
749.94

>  <charge_dist(7.4)>
-1.00

>  <CNS>
FALSE

>  <ArRings>
3

>  <HBD>
2

>  <BALABAN_INDEX>
1.06

>  <bpKa>
1.61

>  <TPSAScore>
0.0

>  <MWScore>
0.0

>  <bpKaScore>
1.0

>  <logPScore>
0.2200000000000002

>  <MPO_area>
10.88

>  <TPSA>
156.89

>  <logP>
4.56

$$$$

  Mrv1722703221715202D          

 28 30  0  0  0  0            999 V2000
    0.0000    0.0000    0.0000 F   0  0  0  0  0  0  0  0  0  0  0  0
    0.8030    0.1893    0.0000 C   0  0  0  0  0  0  0  0  0  0  0  0
    1.0445    0.9858    0.0000 C   0  0  0  0  0  0  0  0  0  0  0  0
    1.3579   -0.4113    0.0000 C   0  0  0  0  0  0  0  0  0  0  0  0
    0.4765    1.5994    0.0000 F   0  0  0  0  0  0  0  0  0  0  0  0
    1.8475    1.1751    0.0000 C   0  0  0  0  0  0  0  0  0  0  0  0
    2.1609   -0.2219    0.0000 C   0  0  0  0  0  0  0  0  0  0  0  0
    2.4024    0.5745    0.0000 C   0  0  0  0  0  0  0  0  0  0  0  0
    2.7158   -0.8226    0.0000 F   0  0  0  0  0  0  0  0  0  0  0  0
    3.2054    0.7638    0.0000 C   0  0  0  0  0  0  0  0  0  0  0  0
    3.7603    0.1632    0.0000 C   0  0  1  0  0  0  0  0  0  0  0  0
    3.5057   -0.6202    0.0000 N   0  0  0  0  0  0  0  0  0  0  0  0
    4.5633    0.3525    0.0000 C   0  0  0  0  0  0  0  0  0  0  0  0
    5.1182   -0.2481    0.0000 C   0  0  0  0  0  0  0  0  0  0  0  0
    4.8636   -1.0315    0.0000 O   0  0  0  0  0  0  0  0  0  0  0  0
    5.9212   -0.0587    0.0000 N   0  0  0  0  0  0  0  0  0  0  0  0
    6.4761   -0.6593    0.0000 C   0  0  0  0  0  0  0  0  0  0  0  0
    6.1627    0.7377    0.0000 C   0  0  0  0  0  0  0  0  0  0  0  0
    7.2791   -0.4700    0.0000 C   0  0  0  0  0  0  0  0  0  0  0  0
    6.9657    0.9270    0.0000 C   0  0  0  0  0  0  0  0  0  0  0  0
    7.9515   -0.9466    0.0000 N   0  0  0  0  0  0  0  0  0  0  0  0
    7.5207    0.3264    0.0000 N   0  0  0  0  0  0  0  0  0  0  0  0
    8.6109   -0.4439    0.0000 N   0  0  0  0  0  0  0  0  0  0  0  0
    8.3432    0.3395    0.0000 C   0  0  0  0  0  0  0  0  0  0  0  0
    8.8198    1.0249    0.0000 C   0  0  0  0  0  0  0  0  0  0  0  0
    9.2963    1.7104    0.0000 F   0  0  0  0  0  0  0  0  0  0  0  0
    9.4922    0.5484    0.0000 F   0  0  0  0  0  0  0  0  0  0  0  0
    8.1343    1.5146    0.0000 F   0  0  0  0  0  0  0  0  0  0  0  0
  1  2  1  0  0  0  0
  2  3  2  0  0  0  0
  2  4  1  0  0  0  0
  3  5  1  0  0  0  0
  3  6  1  0  0  0  0
  4  7  2  0  0  0  0
  6  8  2  0  0  0  0
  7  9  1  0  0  0  0
  8 10  1  0  0  0  0
 10 11  1  0  0  0  0
 11 12  1  6  0  0  0
 11 13  1  0  0  0  0
 13 14  1  0  0  0  0
 14 15  2  0  0  0  0
 14 16  1  0  0  0  0
 16 17  1  0  0  0  0
 16 18  1  0  0  0  0
 17 19  1  0  0  0  0
 18 20  1  0  0  0  0
 19 21  2  0  0  0  0
 19 22  1  0  0  0  0
 21 23  1  0  0  0  0
 22 24  1  0  0  0  0
 24 25  1  0  0  0  0
 25 26  1  0  0  0  0
 25 27  1  0  0  0  0
 25 28  1  0  0  0  0
  7  8  1  0  0  0  0
 20 22  1  0  0  0  0
 23 24  2  0  0  0  0
M  END

>  <name>
Sitagliptin

>  <ROTATABLE_BONDCOUNT>
5

>  <HBDScore>
0.8333333333333334

>  <dipole>
5.70

>  <logD>
-0.14

>  <MPOScore>
5.105333333333333

>  <logDScore>
1.0

>  <MW>
407.320

>  <charge_dist(7.4)>
0.96

>  <CNS>
FALSE

>  <ArRings>
2

>  <HBD>
1

>  <BALABAN_INDEX>
1.37

>  <bpKa>
8.78

>  <TPSAScore>
1.0

>  <MWScore>
0.662

>  <bpKaScore>
0.6100000000000003

>  <logPScore>
1.0

>  <MPO_area>
73.31

>  <TPSA>
77.04

>  <logP>
1.26

$$$$

  Mrv1722703221715202D          

 12 12  0  0  0  0            999 V2000
    0.0000    0.0000    0.0000 O   0  0  0  0  0  0  0  0  0  0  0  0
   -0.1034   -0.8145    0.0000 C   0  0  0  0  0  0  0  0  0  0  0  0
   -0.8727   -1.1312    0.0000 O   0  5  0  0  0  0  0  0  0  0  0  0
    0.5494   -1.3058    0.0000 C   0  0  0  0  0  0  0  0  0  0  0  0
    1.3058   -0.9761    0.0000 C   0  0  0  0  0  0  0  0  0  0  0  0
    1.9586   -1.4674    0.0000 C   0  0  0  0  0  0  0  0  0  0  0  0
    2.7149   -1.1377    0.0000 C   0  0  0  0  0  0  0  0  0  0  0  0
    2.8054   -0.3103    0.0000 C   0  0  0  0  0  0  0  0  0  0  0  0
    3.3678   -1.6289    0.0000 C   0  0  0  0  0  0  0  0  0  0  0  0
    3.5618    0.0194    0.0000 C   0  0  0  0  0  0  0  0  0  0  0  0
    4.1241   -1.2993    0.0000 C   0  0  0  0  0  0  0  0  0  0  0  0
    4.2146   -0.4719    0.0000 C   0  0  0  0  0  0  0  0  0  0  0  0
  1  2  2  0  0  0  0
  2  3  1  0  0  0  0
  2  4  1  0  0  0  0
  4  5  1  0  0  0  0
  5  6  1  0  0  0  0
  6  7  1  0  0  0  0
  7  8  2  0  0  0  0
  7  9  1  0  0  0  0
  8 10  1  0  0  0  0
  9 11  2  0  0  0  0
 10 12  2  0  0  0  0
 11 12  1  0  0  0  0
M  CHG  1   3  -1
M  END

>  <name>
Sodium_phenylbutyrate

>  <ROTATABLE_BONDCOUNT>
4

>  <HBDScore>
1.0

>  <dipole>
19.45

>  <logD>
-0.04

>  <MPOScore>
6.0

>  <logDScore>
1.0

>  <MW>
163.197

>  <charge_dist(7.4)>
-1.00

>  <CNS>
FALSE

>  <ArRings>
1

>  <HBD>
0

>  <BALABAN_INDEX>
1.98

>  <bpKa>
0.0

>  <TPSAScore>
1.0

>  <MWScore>
1.0

>  <bpKaScore>
1.0

>  <logPScore>
1.0

>  <MPO_area>
100.0

>  <TPSA>
40.13

>  <logP>
2.50

$$$$

  Mrv1722703221715202D          

 36 38  0  0  0  0            999 V2000
    0.0000    0.0000    0.0000 P   0  0  2  0  0  0  0  0  0  0  0  0
   -0.2724    0.7848    0.0000 O   0  0  0  0  0  0  0  0  0  0  0  0
   -0.7848   -0.2594    0.0000 O   0  0  0  0  0  0  0  0  0  0  0  0
    0.7718    0.2724    0.0000 O   0  0  0  0  0  0  0  0  0  0  0  0
    0.2594   -0.7718    0.0000 N   0  0  0  0  0  0  0  0  0  0  0  0
   -1.4139    0.2854    0.0000 C   0  0  0  0  0  0  0  0  0  0  0  0
    1.3880   -0.2594    0.0000 C   0  0  0  0  0  0  0  0  0  0  0  0
   -0.2854   -1.3880    0.0000 C   0  0  2  0  0  0  0  0  0  0  0  0
   -1.2647    1.1026    0.0000 C   0  0  0  0  0  0  0  0  0  0  0  0
   -2.1987    0.0259    0.0000 C   0  0  0  0  0  0  0  0  0  0  0  0
    2.1598    0.0130    0.0000 C   0  0  1  0  0  0  0  0  0  0  0  0
   -0.0259   -2.1598    0.0000 C   0  0  0  0  0  0  0  0  0  0  0  0
   -1.1026   -1.2259    0.0000 C   0  0  0  0  0  0  0  0  0  0  0  0
   -1.8939    1.6474    0.0000 C   0  0  0  0  0  0  0  0  0  0  0  0
   -2.8279    0.5708    0.0000 C   0  0  0  0  0  0  0  0  0  0  0  0
    2.8279   -0.4540    0.0000 O   0  0  0  0  0  0  0  0  0  0  0  0
    2.3933    0.8043    0.0000 C   0  0  1  0  0  0  0  0  0  0  0  0
   -0.5708   -2.7759    0.0000 O   0  0  0  0  0  0  0  0  0  0  0  0
    0.7783   -2.3089    0.0000 O   0  0  0  0  0  0  0  0  0  0  0  0
   -2.6787    1.3880    0.0000 C   0  0  0  0  0  0  0  0  0  0  0  0
    3.4764    0.0454    0.0000 C   0  0  2  0  0  0  0  0  0  0  0  0
    1.8939    1.4658    0.0000 O   0  0  0  0  0  0  0  0  0  0  0  0
    3.2105    0.8237    0.0000 C   0  0  2  0  0  0  0  0  0  0  0  0
    1.0378   -3.0808    0.0000 C   0  0  0  0  0  0  0  0  0  0  0  0
    4.2547   -0.1881    0.0000 N   0  0  0  0  0  0  0  0  0  0  0  0
    4.0083    1.0183    0.0000 F   0  0  0  0  0  0  0  0  0  0  0  0
    3.1067    1.6474    0.0000 C   0  0  0  0  0  0  0  0  0  0  0  0
    1.8420   -3.2300    0.0000 C   0  0  0  0  0  0  0  0  0  0  0  0
    0.4929   -3.6969    0.0000 C   0  0  0  0  0  0  0  0  0  0  0  0
    4.8514    0.3827    0.0000 C   0  0  0  0  0  0  0  0  0  0  0  0
    4.4363   -0.9858    0.0000 C   0  0  0  0  0  0  0  0  0  0  0  0
    4.6569    1.1934    0.0000 O   0  0  0  0  0  0  0  0  0  0  0  0
    5.6297    0.1492    0.0000 N   0  0  0  0  0  0  0  0  0  0  0  0
    5.2147   -1.2193    0.0000 C   0  0  0  0  0  0  0  0  0  0  0  0
    5.8114   -0.6486    0.0000 C   0  0  0  0  0  0  0  0  0  0  0  0
    6.5896   -0.8821    0.0000 O   0  0  0  0  0  0  0  0  0  0  0  0
  1  2  2  0  0  0  0
  1  3  1  1  0  0  0
  1  4  1  0  0  0  0
  1  5  1  0  0  0  0
  3  6  1  0  0  0  0
  4  7  1  0  0  0  0
  8  5  1  6  0  0  0
  6  9  2  0  0  0  0
  6 10  1  0  0  0  0
 11  7  1  6  0  0  0
  8 12  1  0  0  0  0
  8 13  1  0  0  0  0
  9 14  1  0  0  0  0
 10 15  2  0  0  0  0
 11 16  1  0  0  0  0
 11 17  1  0  0  0  0
 12 18  2  0  0  0  0
 12 19  1  0  0  0  0
 14 20  2  0  0  0  0
 16 21  1  0  0  0  0
 17 22  1  1  0  0  0
 17 23  1  0  0  0  0
 19 24  1  0  0  0  0
 21 25  1  6  0  0  0
 23 26  1  1  0  0  0
 23 27  1  0  0  0  0
 24 28  1  0  0  0  0
 24 29  1  0  0  0  0
 25 30  1  0  0  0  0
 25 31  1  0  0  0  0
 30 32  2  0  0  0  0
 30 33  1  0  0  0  0
 31 34  2  0  0  0  0
 33 35  1  0  0  0  0
 35 36  2  0  0  0  0
 15 20  1  0  0  0  0
 21 23  1  0  0  0  0
 34 35  1  0  0  0  0
M  END

>  <name>
Sofosbuvir

>  <ROTATABLE_BONDCOUNT>
11

>  <HBDScore>
0.16666666666666674

>  <dipole>
6.32

>  <logD>
1.28

>  <MPOScore>
3.166666666666667

>  <logDScore>
1.0

>  <MW>
529.458

>  <charge_dist(7.4)>
-0.01

>  <CNS>
FALSE

>  <ArRings>
2

>  <HBD>
3

>  <BALABAN_INDEX>
1.59

>  <bpKa>
-3.85

>  <TPSAScore>
0.0

>  <MWScore>
0.0

>  <bpKaScore>
1.0

>  <logPScore>
1.0

>  <MPO_area>
36.11

>  <TPSA>
152.73

>  <logP>
1.28

$$$$

  Mrv1722703221715202D          

 18 18  0  0  0  0            999 V2000
    0.0000    0.0000    0.0000 S   0  0  0  0  0  0  0  0  0  0  0  0
    0.5279    0.6437    0.0000 O   0  0  0  0  0  0  0  0  0  0  0  0
   -0.5407   -0.6309    0.0000 O   0  0  0  0  0  0  0  0  0  0  0  0
    0.6309   -0.5279    0.0000 N   0  0  0  0  0  0  0  0  0  0  0  0
   -0.6437    0.5407    0.0000 C   0  0  0  0  0  0  0  0  0  0  0  0
    1.4033   -0.2382    0.0000 C   0  0  0  0  0  0  0  0  0  0  0  0
    1.5449    0.5858    0.0000 C   0  0  0  0  0  0  0  0  0  0  0  0
    2.0342   -0.7661    0.0000 C   0  0  0  0  0  0  0  0  0  0  0  0
    2.3174    0.8755    0.0000 C   0  0  0  0  0  0  0  0  0  0  0  0
    2.8067   -0.4764    0.0000 C   0  0  0  0  0  0  0  0  0  0  0  0
    2.9483    0.3476    0.0000 C   0  0  0  0  0  0  0  0  0  0  0  0
    3.7208    0.6373    0.0000 C   0  0  1  0  0  0  0  0  0  0  0  0
    3.8624    1.4613    0.0000 O   0  0  0  0  0  0  0  0  0  0  0  0
    4.3516    0.1094    0.0000 C   0  0  0  0  0  0  0  0  0  0  0  0
    5.1241    0.3991    0.0000 N   0  0  0  0  0  0  0  0  0  0  0  0
    5.7550   -0.1288    0.0000 C   0  0  0  0  0  0  0  0  0  0  0  0
    6.5274    0.1609    0.0000 C   0  0  0  0  0  0  0  0  0  0  0  0
    5.6004   -0.9399    0.0000 C   0  0  0  0  0  0  0  0  0  0  0  0
  1  2  2  0  0  0  0
  1  3  2  0  0  0  0
  1  4  1  0  0  0  0
  1  5  1  0  0  0  0
  4  6  1  0  0  0  0
  6  7  2  0  0  0  0
  6  8  1  0  0  0  0
  7  9  1  0  0  0  0
  8 10  2  0  0  0  0
  9 11  2  0  0  0  0
 11 12  1  0  0  0  0
 12 13  1  1  0  0  0
 12 14  1  0  0  0  0
 14 15  1  0  0  0  0
 15 16  1  0  0  0  0
 16 17  1  0  0  0  0
 16 18  1  0  0  0  0
 10 11  1  0  0  0  0
M  END

>  <name>
Sotalol

>  <ROTATABLE_BONDCOUNT>
5

>  <HBDScore>
0.16666666666666674

>  <dipole>
3.57

>  <logD>
-2.12

>  <MPOScore>
4.451666666666667

>  <logDScore>
1.0

>  <MW>
272.36

>  <charge_dist(7.4)>
0.99

>  <CNS>
FALSE

>  <ArRings>
1

>  <HBD>
3

>  <BALABAN_INDEX>
2.26

>  <bpKa>
9.43

>  <TPSAScore>
1.0

>  <MWScore>
1.0

>  <bpKaScore>
0.28500000000000014

>  <logPScore>
1.0

>  <MPO_area>
58.32

>  <TPSA>
78.43

>  <logP>
-0.40

$$$$

  Mrv1722703221715202D          

 28 31  0  0  1  0            999 V2000
    0.0000    0.0000    0.0000 F   0  0  0  0  0  0  0  0  0  0  0  0
    0.2876    0.7733    0.0000 C   0  0  0  0  0  0  0  0  0  0  0  0
   -0.2365    1.4188    0.0000 C   0  0  0  0  0  0  0  0  0  0  0  0
    1.0928    0.9139    0.0000 C   0  0  0  0  0  0  0  0  0  0  0  0
   -1.0545    1.2909    0.0000 N   0  0  0  0  0  0  0  0  0  0  0  0
    0.0511    2.1920    0.0000 C   0  0  0  0  0  0  0  0  0  0  0  0
    1.6041    0.2812    0.0000 N   0  0  0  0  0  0  0  0  0  0  0  0
    1.3804    1.6872    0.0000 C   0  0  0  0  0  0  0  0  0  0  0  0
   -1.3549    0.5304    0.0000 C   0  0  0  0  0  0  0  0  0  0  0  0
   -1.5785    1.9364    0.0000 C   0  0  0  0  0  0  0  0  0  0  0  0
   -0.4729    2.8375    0.0000 F   0  0  0  0  0  0  0  0  0  0  0  0
    0.8564    2.3326    0.0000 C   0  0  0  0  0  0  0  0  0  0  0  0
    2.4093    0.4218    0.0000 C   0  0  0  0  0  0  0  0  0  0  0  0
    1.3037   -0.4793    0.0000 C   0  0  0  0  0  0  0  0  0  0  0  0
    2.1857    1.8278    0.0000 C   0  0  0  0  0  0  0  0  0  0  0  0
   -2.1729    0.4026    0.0000 C   0  0  1  0  0  0  0  0  0  0  0  0
   -2.3966    1.8086    0.0000 C   0  0  2  0  0  0  0  0  0  0  0  0
    1.1440    3.1059    0.0000 N   0  0  0  0  0  0  0  0  0  0  0  0
    2.6969    1.1951    0.0000 C   0  0  0  0  0  0  0  0  0  0  0  0
    1.4316   -1.2845    0.0000 C   0  0  0  0  0  0  0  0  0  0  0  0
    0.6583   -0.9906    0.0000 C   0  0  0  0  0  0  0  0  0  0  0  0
    2.4733    2.6010    0.0000 O   0  0  0  0  0  0  0  0  0  0  0  0
   -2.6969    1.0481    0.0000 N   0  0  0  0  0  0  0  0  0  0  0  0
   -2.4733   -0.3579    0.0000 C   0  0  0  0  0  0  0  0  0  0  0  0
   -2.9206    2.4541    0.0000 C   0  0  0  0  0  0  0  0  0  0  0  0
    3.5022    1.3357    0.0000 C   0  0  0  0  0  0  0  0  0  0  0  0
    3.7897    2.1090    0.0000 O   0  0  0  0  0  0  0  0  0  0  0  0
    4.0134    0.7030    0.0000 O   0  0  0  0  0  0  0  0  0  0  0  0
  1  2  1  0  0  0  0
  2  3  2  0  0  0  0
  2  4  1  0  0  0  0
  3  5  1  0  0  0  0
  3  6  1  0  0  0  0
  4  7  1  0  0  0  0
  4  8  2  0  0  0  0
  5  9  1  0  0  0  0
  5 10  1  0  0  0  0
  6 11  1  0  0  0  0
  6 12  2  0  0  0  0
  7 13  1  0  0  0  0
  7 14  1  0  0  0  0
  8 15  1  0  0  0  0
  9 16  1  0  0  0  0
 10 17  1  0  0  0  0
 12 18  1  0  0  0  0
 13 19  2  0  0  0  0
 14 20  1  0  0  0  0
 14 21  1  0  0  0  0
 15 22  2  0  0  0  0
 16 23  1  0  0  0  0
 16 24  1  6  0  0  0
 17 25  1  6  0  0  0
 19 26  1  0  0  0  0
 26 27  2  0  0  0  0
 26 28  1  0  0  0  0
  8 12  1  0  0  0  0
 15 19  1  0  0  0  0
 17 23  1  0  0  0  0
 20 21  1  0  0  0  0
M  END

>  <name>
Sparfloxacin

>  <ROTATABLE_BONDCOUNT>
3

>  <HBDScore>
0.16666666666666674

>  <dipole>
12.11

>  <logD>
-0.04

>  <MPOScore>
4.243521428571429

>  <logDScore>
1.0

>  <MW>
392.407

>  <charge_dist(7.4)>
0.00

>  <CNS>
FALSE

>  <ArRings>
2

>  <HBD>
3

>  <BALABAN_INDEX>
1.59

>  <bpKa>
8.79

>  <TPSAScore>
0.7033333333333331

>  <MWScore>
0.7685214285714287

>  <bpKaScore>
0.6050000000000004

>  <logPScore>
1.0

>  <MPO_area>
50.03

>  <TPSA>
98.90

>  <logP>
-0.04

$$$$

  Mrv1722703221715202D          

 31 33  0  0  0  0            999 V2000
    0.0000    0.0000    0.0000 S   0  0  0  0  0  0  0  0  0  0  0  0
    0.5155   -0.6394    0.0000 C   0  0  0  0  0  0  0  0  0  0  0  0
    0.4437    0.7047    0.0000 C   0  0  0  0  0  0  0  0  0  0  0  0
    1.2854   -0.3393    0.0000 S   0  0  0  0  0  0  0  0  0  0  0  0
    1.0309   -1.2789    0.0000 C   0  0  0  0  0  0  0  0  0  0  0  0
   -0.2675   -0.9265    0.0000 C   0  0  0  0  0  0  0  0  0  0  0  0
    1.2397    0.4959    0.0000 C   0  0  0  0  0  0  0  0  0  0  0  0
    0.5742   -1.9705    0.0000 N   0  0  0  0  0  0  0  0  0  0  0  0
   -0.2349   -1.7487    0.0000 C   0  0  2  0  0  0  0  0  0  0  0  0
    0.8613   -2.7404    0.0000 C   0  0  0  0  0  0  0  0  0  0  0  0
   -0.8874   -2.2641    0.0000 C   0  0  0  0  0  0  0  0  0  0  0  0
    0.3328   -3.3799    0.0000 O   0  0  0  0  0  0  0  0  0  0  0  0
    1.6769   -2.8644    0.0000 C   0  0  1  0  0  0  0  0  0  0  0  0
   -0.7634   -3.0797    0.0000 O   0  0  0  0  0  0  0  0  0  0  0  0
   -1.6704   -1.9574    0.0000 O   0  0  0  0  0  0  0  0  0  0  0  0
    2.1923   -2.2119    0.0000 N   0  0  0  0  0  0  0  0  0  0  0  0
    1.9640   -3.6343    0.0000 C   0  0  0  0  0  0  0  0  0  0  0  0
    3.0080   -2.3359    0.0000 C   0  0  2  0  0  0  0  0  0  0  0  0
    3.2950   -3.1058    0.0000 C   0  0  0  0  0  0  0  0  0  0  0  0
    3.5234   -1.6834    0.0000 C   0  0  0  0  0  0  0  0  0  0  0  0
    2.7666   -3.7453    0.0000 O   0  0  0  0  0  0  0  0  0  0  0  0
    4.1107   -3.2298    0.0000 O   0  0  0  0  0  0  0  0  0  0  0  0
    4.3390   -1.8074    0.0000 C   0  0  0  0  0  0  0  0  0  0  0  0
    4.3978   -3.9997    0.0000 C   0  0  0  0  0  0  0  0  0  0  0  0
    4.8545   -1.1549    0.0000 C   0  0  0  0  0  0  0  0  0  0  0  0
    5.2133   -4.1237    0.0000 C   0  0  0  0  0  0  0  0  0  0  0  0
    5.6701   -1.2789    0.0000 C   0  0  0  0  0  0  0  0  0  0  0  0
    4.5543   -0.3719    0.0000 C   0  0  0  0  0  0  0  0  0  0  0  0
    6.1855   -0.6264    0.0000 C   0  0  0  0  0  0  0  0  0  0  0  0
    5.0698    0.2806    0.0000 C   0  0  0  0  0  0  0  0  0  0  0  0
    5.8854    0.1566    0.0000 C   0  0  0  0  0  0  0  0  0  0  0  0
  1  2  1  0  0  0  0
  1  3  1  0  0  0  0
  2  4  1  0  0  0  0
  2  5  1  0  0  0  0
  2  6  1  0  0  0  0
  3  7  1  0  0  0  0
  5  8  1  0  0  0  0
  6  9  1  0  0  0  0
  8 10  1  0  0  0  0
  9 11  1  6  0  0  0
 10 12  2  0  0  0  0
 10 13  1  0  0  0  0
 11 14  2  0  0  0  0
 11 15  1  0  0  0  0
 13 16  1  1  0  0  0
 13 17  1  0  0  0  0
 18 16  1  1  0  0  0
 18 19  1  0  0  0  0
 18 20  1  0  0  0  0
 19 21  2  0  0  0  0
 19 22  1  0  0  0  0
 20 23  1  0  0  0  0
 22 24  1  0  0  0  0
 23 25  1  0  0  0  0
 24 26  1  0  0  0  0
 25 27  2  0  0  0  0
 25 28  1  0  0  0  0
 27 29  1  0  0  0  0
 28 30  2  0  0  0  0
 29 31  2  0  0  0  0
  4  7  1  0  0  0  0
  8  9  1  0  0  0  0
 30 31  1  0  0  0  0
M  END

>  <name>
Spirapril

>  <ROTATABLE_BONDCOUNT>
10

>  <HBDScore>
0.5

>  <dipole>
4.49

>  <logD>
-0.03

>  <MPOScore>
4.5405

>  <logDScore>
1.0

>  <MW>
466.61

>  <charge_dist(7.4)>
-0.99

>  <CNS>
FALSE

>  <ArRings>
1

>  <HBD>
2

>  <BALABAN_INDEX>
1.56

>  <bpKa>
5.2

>  <TPSAScore>
0.802

>  <MWScore>
0.23849999999999993

>  <bpKaScore>
1.0

>  <logPScore>
1.0

>  <MPO_area>
59.35

>  <TPSA>
95.94

>  <logP>
1.60

$$$$

  Mrv1722703221715202D          

 29 33  0  0  0  0            999 V2000
    0.0000    0.0000    0.0000 S   0  0  0  0  0  0  0  0  0  0  0  0
    0.5164   -0.6261    0.0000 C   0  0  0  0  0  0  0  0  0  0  0  0
    0.2840    0.7746    0.0000 C   0  0  2  0  0  0  0  0  0  0  0  0
    1.3168   -0.4841    0.0000 O   0  0  0  0  0  0  0  0  0  0  0  0
    0.2195   -1.3878    0.0000 C   0  0  0  0  0  0  0  0  0  0  0  0
   -0.2453    1.4136    0.0000 C   0  0  1  0  0  0  0  0  0  0  0  0
    1.0844    0.9166    0.0000 C   0  0  0  0  0  0  0  0  0  0  0  0
    0.0387    2.1882    0.0000 C   0  0  2  0  0  0  0  0  0  0  0  0
   -1.0586    1.2845    0.0000 C   0  0  2  0  0  0  0  0  0  0  0  0
    1.3684    1.6911    0.0000 C   0  0  0  0  0  0  0  0  0  0  0  0
    0.8391    2.3302    0.0000 C   0  0  1  0  0  0  0  0  0  0  0  0
   -0.4905    2.8272    0.0000 C   0  0  0  0  0  0  0  0  0  0  0  0
   -1.5879    1.9235    0.0000 C   0  0  1  0  0  0  0  0  0  0  0  0
   -1.5039    0.6003    0.0000 C   0  0  0  0  0  0  0  0  0  0  0  0
    2.1688    1.8332    0.0000 C   0  0  0  0  0  0  0  0  0  0  0  0
    1.1232    3.1047    0.0000 C   0  0  0  0  0  0  0  0  0  0  0  0
    0.3098    2.9692    0.0000 C   0  0  0  0  0  0  0  0  0  0  0  0
   -1.3038    2.6981    0.0000 C   0  0  0  0  0  0  0  0  0  0  0  0
   -2.3560    1.6266    0.0000 C   0  0  1  0  0  0  0  0  0  0  0  0
   -2.0203    2.6271    0.0000 C   0  0  0  0  0  0  0  0  0  0  0  0
   -2.3043    0.8133    0.0000 C   0  0  0  0  0  0  0  0  0  0  0  0
    2.4528    2.6077    0.0000 C   0  0  0  0  0  0  0  0  0  0  0  0
    1.9235    3.2468    0.0000 C   0  0  0  0  0  0  0  0  0  0  0  0
   -3.1241    1.3297    0.0000 O   0  0  0  0  0  0  0  0  0  0  0  0
   -2.4141    2.4528    0.0000 C   0  0  0  0  0  0  0  0  0  0  0  0
    3.2532    2.7497    0.0000 O   0  0  0  0  0  0  0  0  0  0  0  0
   -3.6534    1.9687    0.0000 C   0  0  0  0  0  0  0  0  0  0  0  0
   -3.2144    2.6658    0.0000 C   0  0  0  0  0  0  0  0  0  0  0  0
   -4.4796    1.9235    0.0000 O   0  0  0  0  0  0  0  0  0  0  0  0
  1  2  1  0  0  0  0
  3  1  1  6  0  0  0
  2  4  2  0  0  0  0
  2  5  1  0  0  0  0
  6  3  1  6  0  0  0
  3  7  1  0  0  0  0
  6  8  1  0  0  0  0
  6  9  1  0  0  0  0
  7 10  1  0  0  0  0
  8 11  1  0  0  0  0
  8 12  1  1  0  0  0
  9 13  1  0  0  0  0
  9 14  1  1  0  0  0
 10 15  2  0  0  0  0
 11 16  1  0  0  0  0
 11 17  1  1  0  0  0
 12 18  1  0  0  0  0
 13 19  1  0  0  0  0
 13 20  1  1  0  0  0
 14 21  1  0  0  0  0
 15 22  1  0  0  0  0
 16 23  1  0  0  0  0
 19 24  1  1  0  0  0
 19 25  1  0  0  0  0
 22 26  2  0  0  0  0
 24 27  1  0  0  0  0
 25 28  1  0  0  0  0
 27 29  2  0  0  0  0
 10 11  1  0  0  0  0
 13 18  1  0  0  0  0
 19 21  1  0  0  0  0
 22 23  1  0  0  0  0
 27 28  1  0  0  0  0
M  END

>  <name>
Spironolactone

>  <ROTATABLE_BONDCOUNT>
2

>  <HBDScore>
1.0

>  <dipole>
3.31

>  <logD>
3.64

>  <MPOScore>
4.455857142857143

>  <logDScore>
0.17999999999999994

>  <MW>
416.58

>  <charge_dist(7.4)>
-0.00

>  <CNS>
FALSE

>  <ArRings>
0

>  <HBD>
0

>  <BALABAN_INDEX>
1.37

>  <bpKa>
-4.88

>  <TPSAScore>
1.0

>  <MWScore>
0.595857142857143

>  <bpKaScore>
1.0

>  <logPScore>
0.6799999999999999

>  <MPO_area>
56.21

>  <TPSA>
60.44

>  <logP>
3.64

$$$$

  Mrv1722703221715202D          

 24 28  0  0  0  0            999 V2000
    0.0000    0.0000    0.0000 O   0  0  0  0  0  0  0  0  0  0  0  0
   -0.0963    0.8218    0.0000 C   0  0  2  0  0  0  0  0  0  0  0  0
   -0.9180    0.7511    0.0000 C   0  0  2  0  0  0  0  0  0  0  0  0
    0.0770    1.6242    0.0000 C   0  0  0  0  0  0  0  0  0  0  0  0
    0.7126    0.7318    0.0000 C   0  0  0  0  0  0  0  0  0  0  0  0
   -1.2454    1.5087    0.0000 C   0  0  1  0  0  0  0  0  0  0  0  0
   -1.4124    0.1027    0.0000 C   0  0  0  0  0  0  0  0  0  0  0  0
   -0.6163    0.0000    0.0000 C   0  0  0  0  0  0  0  0  0  0  0  0
   -0.6355    2.0479    0.0000 C   0  0  0  0  0  0  0  0  0  0  0  0
   -2.0672    1.6113    0.0000 C   0  0  1  0  0  0  0  0  0  0  0  0
   -2.2341    0.2055    0.0000 C   0  0  0  0  0  0  0  0  0  0  0  0
   -2.5615    0.9629    0.0000 C   0  0  2  0  0  0  0  0  0  0  0  0
   -2.3946    2.3689    0.0000 C   0  0  0  0  0  0  0  0  0  0  0  0
   -3.3832    1.0657    0.0000 C   0  0  2  0  0  0  0  0  0  0  0  0
   -3.2163    2.4716    0.0000 C   0  0  0  0  0  0  0  0  0  0  0  0
   -3.7106    1.8232    0.0000 C   0  0  1  0  0  0  0  0  0  0  0  0
   -3.8776    0.4173    0.0000 C   0  0  0  0  0  0  0  0  0  0  0  0
   -3.0686    0.3210    0.0000 C   0  0  0  0  0  0  0  0  0  0  0  0
   -4.5324    1.9259    0.0000 C   0  0  0  0  0  0  0  0  0  0  0  0
   -4.6993    0.5200    0.0000 C   0  0  0  0  0  0  0  0  0  0  0  0
   -5.0267    1.2775    0.0000 C   0  0  0  0  0  0  0  0  0  0  0  0
   -5.3220   -0.0128    0.0000 C   0  0  0  0  0  0  0  0  0  0  0  0
   -5.8484    1.2069    0.0000 N   0  0  0  0  0  0  0  0  0  0  0  0
   -6.0346    0.4108    0.0000 N   0  0  0  0  0  2  0  0  0  0  0  0
  2  1  1  6  0  0  0
  2  3  1  0  0  0  0
  2  4  1  0  0  0  0
  2  5  1  0  0  0  0
  3  6  1  0  0  0  0
  3  7  1  0  0  0  0
  3  8  1  6  0  0  0
  4  9  1  0  0  0  0
  6 10  1  0  0  0  0
  7 11  1  0  0  0  0
 10 12  1  0  0  0  0
 10 13  1  1  0  0  0
 12 14  1  0  0  0  0
 13 15  1  0  0  0  0
 14 16  1  0  0  0  0
 14 17  1  0  0  0  0
 14 18  1  6  0  0  0
 16 19  1  6  0  0  0
 17 20  1  0  0  0  0
 19 21  1  0  0  0  0
 20 22  2  0  0  0  0
 21 23  2  0  0  0  0
 22 24  1  0  0  0  0
  6  9  1  6  0  0  0
 12 11  1  6  0  0  0
 15 16  1  0  0  0  0
 20 21  1  0  0  0  0
 23 24  1  0  0  0  0
M  RAD  1  24   2
M  END

>  <name>
Stanozolol

>  <ROTATABLE_BONDCOUNT>
0

>  <HBDScore>
0.8333333333333334

>  <logD>
2.98

>  <MPOScore>
5.343333333333333

>  <logDScore>
0.51

>  <MW>
327.492

>  <charge_dist(7.4)>
0.00

>  <CNS>
FALSE

>  <ArRings>
1

>  <HBD>
1

>  <BALABAN_INDEX>
1.25

>  <bpKa>
3.17

>  <TPSAScore>
1.0

>  <MWScore>
1.0

>  <bpKaScore>
1.0

>  <logPScore>
1.0

>  <MPO_area>
79.47

>  <TPSA>
46.01

>  <logP>
2.98

$$$$

  Mrv1722703221715202D          

 16 17  0  0  0  0            999 V2000
    0.0000    0.0000    0.0000 O   0  0  0  0  0  0  0  0  0  0  0  0
    0.3773   -0.7286    0.0000 C   0  0  0  0  0  0  0  0  0  0  0  0
   -0.0716   -1.4181    0.0000 N   0  0  0  0  0  0  0  0  0  0  0  0
    1.1969   -0.7611    0.0000 N   0  0  0  0  0  0  0  0  0  0  0  0
    0.3058   -2.1467    0.0000 C   0  0  0  0  0  0  0  0  0  0  0  0
   -0.9042   -1.3726    0.0000 C   0  0  1  0  0  0  0  0  0  0  0  0
    1.5742   -1.4896    0.0000 C   0  0  0  0  0  0  0  0  0  0  0  0
    1.1254   -2.1792    0.0000 C   0  0  0  0  0  0  0  0  0  0  0  0
   -1.4246   -2.0101    0.0000 O   0  0  0  0  0  0  0  0  0  0  0  0
   -1.3661   -0.6765    0.0000 C   0  0  0  0  0  0  0  0  0  0  0  0
    2.3939   -1.5222    0.0000 O   0  0  0  0  0  0  0  0  0  0  0  0
    1.5027   -2.9077    0.0000 C   0  0  0  0  0  0  0  0  0  0  0  0
   -2.2052   -1.7173    0.0000 C   0  0  2  0  0  0  0  0  0  0  0  0
   -2.1662   -0.8912    0.0000 C   0  0  0  0  0  0  0  0  0  0  0  0
   -2.9012   -2.1662    0.0000 C   0  0  0  0  0  0  0  0  0  0  0  0
   -3.6493   -1.7889    0.0000 O   0  0  0  0  0  0  0  0  0  0  0  0
  1  2  2  0  0  0  0
  2  3  1  0  0  0  0
  2  4  1  0  0  0  0
  3  5  1  0  0  0  0
  6  3  1  1  0  0  0
  4  7  1  0  0  0  0
  5  8  2  0  0  0  0
  6  9  1  0  0  0  0
  6 10  1  0  0  0  0
  7 11  2  0  0  0  0
  8 12  1  0  0  0  0
  9 13  1  0  0  0  0
 10 14  2  0  0  0  0
 13 15  1  1  0  0  0
 15 16  1  0  0  0  0
  7  8  1  0  0  0  0
 13 14  1  0  0  0  0
M  END

>  <name>
Stavudine

>  <ROTATABLE_BONDCOUNT>
2

>  <HBDScore>
0.5

>  <dipole>
7.72

>  <logD>
-0.23

>  <MPOScore>
5.5

>  <logDScore>
1.0

>  <MW>
224.216

>  <charge_dist(7.4)>
-0.00

>  <CNS>
FALSE

>  <ArRings>
1

>  <HBD>
2

>  <BALABAN_INDEX>
1.71

>  <bpKa>
-2.96

>  <TPSAScore>
1.0

>  <MWScore>
1.0

>  <bpKaScore>
1.0

>  <logPScore>
1.0

>  <MPO_area>
83.33

>  <TPSA>
78.87

>  <logP>
-0.23

$$$$

  Mrv1722703221715202D          

 10  9  0  0  1  0            999 V2000
    0.0000    0.0000    0.0000 S   0  0  0  0  0  0  0  0  0  0  0  0
    0.1092   -0.8095    0.0000 C   0  0  2  0  0  0  0  0  0  0  0  0
    0.8674   -1.1115    0.0000 C   0  0  0  0  0  0  0  0  0  0  0  0
   -0.5461   -1.3106    0.0000 C   0  0  1  0  0  0  0  0  0  0  0  0
    1.5098   -0.5975    0.0000 O   0  0  0  0  0  0  0  0  0  0  0  0
    0.9766   -1.9210    0.0000 O   0  0  0  0  0  0  0  0  0  0  0  0
   -0.4369   -2.1202    0.0000 S   0  0  0  0  0  0  0  0  0  0  0  0
   -1.3171   -0.9959    0.0000 C   0  0  0  0  0  0  0  0  0  0  0  0
   -1.4391   -0.1735    0.0000 O   0  0  0  0  0  0  0  0  0  0  0  0
   -1.9724   -1.4970    0.0000 O   0  0  0  0  0  0  0  0  0  0  0  0
  2  1  1  6  0  0  0
  2  3  1  0  0  0  0
  2  4  1  0  0  0  0
  3  5  2  0  0  0  0
  3  6  1  0  0  0  0
  4  7  1  1  0  0  0
  4  8  1  0  0  0  0
  8  9  2  0  0  0  0
  8 10  1  0  0  0  0
M  END

>  <name>
Succimer

>  <ROTATABLE_BONDCOUNT>
3

>  <HBDScore>
0.0

>  <dipole>
2.20

>  <logD>
-5.10

>  <MPOScore>
5.0

>  <logDScore>
1.0

>  <MW>
182.21

>  <charge_dist(7.4)>
-2.01

>  <CNS>
FALSE

>  <ArRings>
0

>  <HBD>
4

>  <BALABAN_INDEX>
3.81

>  <bpKa>
0.0

>  <TPSAScore>
1.0

>  <MWScore>
1.0

>  <bpKaScore>
1.0

>  <logPScore>
1.0

>  <MPO_area>
66.67

>  <TPSA>
74.60

>  <logP>
0.26

$$$$

  Mrv1722703221715202D          

 20 21  0  0  0  0            999 V2000
    0.0000    0.0000    0.0000 S   0  0  0  0  0  0  0  0  0  0  0  0
   -0.4025   -0.7141    0.0000 O   0  0  0  0  0  0  0  0  0  0  0  0
    0.3895    0.7271    0.0000 O   0  0  0  0  0  0  0  0  0  0  0  0
   -0.7271    0.4025    0.0000 N   0  0  0  0  0  0  0  0  0  0  0  0
    0.7141   -0.3895    0.0000 C   0  0  0  0  0  0  0  0  0  0  0  0
   -1.4411   -0.0195    0.0000 C   0  0  0  0  0  0  0  0  0  0  0  0
    0.7271   -1.2074    0.0000 C   0  0  0  0  0  0  0  0  0  0  0  0
    1.4151    0.0454    0.0000 C   0  0  0  0  0  0  0  0  0  0  0  0
   -1.4281   -0.8374    0.0000 N   0  0  0  0  0  0  0  0  0  0  0  0
   -2.1681    0.3830    0.0000 C   0  0  0  0  0  0  0  0  0  0  0  0
    1.4411   -1.5969    0.0000 C   0  0  0  0  0  0  0  0  0  0  0  0
    2.1292   -0.3441    0.0000 C   0  0  0  0  0  0  0  0  0  0  0  0
   -2.1422   -1.2593    0.0000 C   0  0  0  0  0  0  0  0  0  0  0  0
   -2.8822   -0.0389    0.0000 C   0  0  0  0  0  0  0  0  0  0  0  0
    2.1422   -1.1620    0.0000 C   0  0  0  0  0  0  0  0  0  0  0  0
   -2.1292   -2.0772    0.0000 O   0  0  0  0  0  0  0  0  0  0  0  0
   -2.8692   -0.8569    0.0000 N   0  0  0  0  0  0  0  0  0  0  0  0
    2.8562   -1.5514    0.0000 N   0  0  0  0  0  0  0  0  0  0  0  0
   -3.5833   -1.2788    0.0000 C   0  0  0  0  0  0  0  0  0  0  0  0
   -4.3103   -0.8763    0.0000 C   0  0  0  0  0  0  0  0  0  0  0  0
  1  2  2  0  0  0  0
  1  3  2  0  0  0  0
  1  4  1  0  0  0  0
  1  5  1  0  0  0  0
  4  6  1  0  0  0  0
  5  7  2  0  0  0  0
  5  8  1  0  0  0  0
  6  9  2  0  0  0  0
  6 10  1  0  0  0  0
  7 11  1  0  0  0  0
  8 12  2  0  0  0  0
  9 13  1  0  0  0  0
 10 14  2  0  0  0  0
 11 15  2  0  0  0  0
 13 16  2  0  0  0  0
 13 17  1  0  0  0  0
 15 18  1  0  0  0  0
 17 19  1  0  0  0  0
 19 20  1  0  0  0  0
 12 15  1  0  0  0  0
 14 17  1  0  0  0  0
M  END

>  <name>
Sulfacytine

>  <ROTATABLE_BONDCOUNT>
3

>  <HBDScore>
0.5

>  <dipole>
7.70

>  <logD>
0.05

>  <MPOScore>
5.004666666666667

>  <logDScore>
1.0

>  <MW>
294.33

>  <charge_dist(7.4)>
-0.00

>  <CNS>
FALSE

>  <ArRings>
2

>  <HBD>
2

>  <BALABAN_INDEX>
1.85

>  <bpKa>
2.17

>  <TPSAScore>
0.5046666666666667

>  <MWScore>
1.0

>  <bpKaScore>
1.0

>  <logPScore>
1.0

>  <MPO_area>
70.95

>  <TPSA>
104.86

>  <logP>
0.05

$$$$

  Mrv1722703221715202D          

 21 22  0  0  0  0            999 V2000
    0.0000    0.0000    0.0000 S   0  0  0  0  0  0  0  0  0  0  0  0
    0.2206    0.8007    0.0000 O   0  0  0  0  0  0  0  0  0  0  0  0
   -0.2333   -0.7880    0.0000 O   0  0  0  0  0  0  0  0  0  0  0  0
    0.7880   -0.2206    0.0000 N   0  0  0  0  0  0  0  0  0  0  0  0
   -0.8007    0.2333    0.0000 C   0  0  0  0  0  0  0  0  0  0  0  0
    1.3744    0.3594    0.0000 C   0  0  0  0  0  0  0  0  0  0  0  0
   -1.0087    1.0402    0.0000 C   0  0  0  0  0  0  0  0  0  0  0  0
   -1.3996   -0.3341    0.0000 C   0  0  0  0  0  0  0  0  0  0  0  0
    1.1663    1.1663    0.0000 N   0  0  0  0  0  0  0  0  0  0  0  0
    2.1624    0.1387    0.0000 C   0  0  0  0  0  0  0  0  0  0  0  0
   -1.8094    1.2735    0.0000 C   0  0  0  0  0  0  0  0  0  0  0  0
   -2.2003   -0.1009    0.0000 C   0  0  0  0  0  0  0  0  0  0  0  0
    1.7526    1.7463    0.0000 C   0  0  0  0  0  0  0  0  0  0  0  0
    2.3579   -0.6557    0.0000 O   0  0  0  0  0  0  0  0  0  0  0  0
    2.7487    0.7187    0.0000 C   0  0  0  0  0  0  0  0  0  0  0  0
   -2.4083    0.7061    0.0000 C   0  0  0  0  0  0  0  0  0  0  0  0
    2.5407    1.5257    0.0000 N   0  0  0  0  0  0  0  0  0  0  0  0
    3.1459   -0.8763    0.0000 C   0  0  0  0  0  0  0  0  0  0  0  0
    3.5368    0.4980    0.0000 O   0  0  0  0  0  0  0  0  0  0  0  0
   -3.2090    0.9394    0.0000 N   0  0  0  0  0  0  0  0  0  0  0  0
    4.1231    1.0780    0.0000 C   0  0  0  0  0  0  0  0  0  0  0  0
  1  2  2  0  0  0  0
  1  3  2  0  0  0  0
  1  4  1  0  0  0  0
  1  5  1  0  0  0  0
  4  6  1  0  0  0  0
  5  7  2  0  0  0  0
  5  8  1  0  0  0  0
  6  9  2  0  0  0  0
  6 10  1  0  0  0  0
  7 11  1  0  0  0  0
  8 12  2  0  0  0  0
  9 13  1  0  0  0  0
 10 14  1  0  0  0  0
 10 15  2  0  0  0  0
 11 16  2  0  0  0  0
 13 17  2  0  0  0  0
 14 18  1  0  0  0  0
 15 19  1  0  0  0  0
 16 20  1  0  0  0  0
 19 21  1  0  0  0  0
 12 16  1  0  0  0  0
 15 17  1  0  0  0  0
M  END

>  <name>
Sulfadoxine

>  <ROTATABLE_BONDCOUNT>
4

>  <HBDScore>
0.5

>  <dipole>
8.11

>  <logD>
-0.22

>  <MPOScore>
4.619

>  <logDScore>
1.0

>  <MW>
310.33

>  <charge_dist(7.4)>
-0.95

>  <CNS>
FALSE

>  <ArRings>
2

>  <HBD>
2

>  <BALABAN_INDEX>
1.88

>  <bpKa>
2.55

>  <TPSAScore>
0.11899999999999977

>  <MWScore>
1.0

>  <bpKaScore>
1.0

>  <logPScore>
1.0

>  <MPO_area>
61.31

>  <TPSA>
116.43

>  <logP>
0.58

$$$$

  Mrv1722703221715202D          

 19 20  0  0  0  0            999 V2000
    0.0000    0.0000    0.0000 S   0  0  0  0  0  0  0  0  0  0  0  0
    0.3602    0.7398    0.0000 O   0  0  0  0  0  0  0  0  0  0  0  0
   -0.3731   -0.7269    0.0000 O   0  0  0  0  0  0  0  0  0  0  0  0
    0.7269   -0.3602    0.0000 N   0  0  0  0  0  0  0  0  0  0  0  0
   -0.7398    0.3731    0.0000 C   0  0  0  0  0  0  0  0  0  0  0  0
    1.4024    0.0965    0.0000 C   0  0  0  0  0  0  0  0  0  0  0  0
   -0.7913    1.1965    0.0000 C   0  0  0  0  0  0  0  0  0  0  0  0
   -1.4281   -0.0708    0.0000 C   0  0  0  0  0  0  0  0  0  0  0  0
    2.1293   -0.2638    0.0000 N   0  0  0  0  0  0  0  0  0  0  0  0
    1.3509    0.9199    0.0000 N   0  0  0  0  0  0  0  0  0  0  0  0
   -1.5311    1.5697    0.0000 C   0  0  0  0  0  0  0  0  0  0  0  0
   -2.1679    0.3023    0.0000 C   0  0  0  0  0  0  0  0  0  0  0  0
    2.8048    0.1930    0.0000 C   0  0  0  0  0  0  0  0  0  0  0  0
    2.0264    1.3766    0.0000 C   0  0  0  0  0  0  0  0  0  0  0  0
   -2.2194    1.1258    0.0000 C   0  0  0  0  0  0  0  0  0  0  0  0
    2.7533    1.0164    0.0000 C   0  0  0  0  0  0  0  0  0  0  0  0
   -2.9591    1.4989    0.0000 N   0  0  0  0  0  0  0  0  0  0  0  0
    3.4288    1.4731    0.0000 O   0  0  0  0  0  0  0  0  0  0  0  0
    4.1557    1.1129    0.0000 C   0  0  0  0  0  0  0  0  0  0  0  0
  1  2  2  0  0  0  0
  1  3  2  0  0  0  0
  1  4  1  0  0  0  0
  1  5  1  0  0  0  0
  4  6  1  0  0  0  0
  5  7  2  0  0  0  0
  5  8  1  0  0  0  0
  6  9  2  0  0  0  0
  6 10  1  0  0  0  0
  7 11  1  0  0  0  0
  8 12  2  0  0  0  0
  9 13  1  0  0  0  0
 10 14  2  0  0  0  0
 11 15  2  0  0  0  0
 13 16  2  0  0  0  0
 15 17  1  0  0  0  0
 16 18  1  0  0  0  0
 18 19  1  0  0  0  0
 12 15  1  0  0  0  0
 14 16  1  0  0  0  0
M  END

>  <name>
Sulfameter

>  <ROTATABLE_BONDCOUNT>
3

>  <HBDScore>
0.5

>  <dipole>
9.38

>  <logD>
-0.18

>  <MPOScore>
4.926666666666667

>  <logDScore>
1.0

>  <MW>
280.30

>  <charge_dist(7.4)>
-0.69

>  <CNS>
FALSE

>  <ArRings>
2

>  <HBD>
2

>  <BALABAN_INDEX>
1.62

>  <bpKa>
1.98

>  <TPSAScore>
0.4266666666666665

>  <MWScore>
1.0

>  <bpKaScore>
1.0

>  <logPScore>
1.0

>  <MPO_area>
69.0

>  <TPSA>
107.20

>  <logP>
0.23

$$$$

  Mrv1722703221715202D          

 17 18  0  0  0  0            999 V2000
    0.0000    0.0000    0.0000 S   0  0  0  0  0  0  0  0  0  0  0  0
    0.2809    0.7839    0.0000 O   0  0  0  0  0  0  0  0  0  0  0  0
   -0.2940   -0.7708    0.0000 O   0  0  0  0  0  0  0  0  0  0  0  0
   -0.7839    0.2940    0.0000 N   0  0  0  0  0  0  0  0  0  0  0  0
    0.7708   -0.2809    0.0000 C   0  0  0  0  0  0  0  0  0  0  0  0
   -1.4307   -0.2287    0.0000 C   0  0  0  0  0  0  0  0  0  0  0  0
    0.9015   -1.0910    0.0000 C   0  0  0  0  0  0  0  0  0  0  0  0
    1.4046    0.2548    0.0000 C   0  0  0  0  0  0  0  0  0  0  0  0
   -2.2407   -0.0196    0.0000 S   0  0  0  0  0  0  0  0  0  0  0  0
   -1.3850   -1.0518    0.0000 N   0  0  0  0  0  0  0  0  0  0  0  0
    1.6724   -1.3719    0.0000 C   0  0  0  0  0  0  0  0  0  0  0  0
    2.1754   -0.0262    0.0000 C   0  0  0  0  0  0  0  0  0  0  0  0
   -2.6915   -0.7186    0.0000 C   0  0  0  0  0  0  0  0  0  0  0  0
   -2.1623   -1.3523    0.0000 N   0  0  0  0  0  0  0  0  0  0  0  0
    2.3061   -0.8362    0.0000 C   0  0  0  0  0  0  0  0  0  0  0  0
   -3.5277   -0.7643    0.0000 C   0  0  0  0  0  0  0  0  0  0  0  0
    3.0770   -1.1171    0.0000 N   0  0  0  0  0  0  0  0  0  0  0  0
  1  2  2  0  0  0  0
  1  3  2  0  0  0  0
  1  4  1  0  0  0  0
  1  5  1  0  0  0  0
  4  6  1  0  0  0  0
  5  7  2  0  0  0  0
  5  8  1  0  0  0  0
  6  9  1  0  0  0  0
  6 10  2  0  0  0  0
  7 11  1  0  0  0  0
  8 12  2  0  0  0  0
  9 13  1  0  0  0  0
 10 14  1  0  0  0  0
 11 15  2  0  0  0  0
 13 16  1  0  0  0  0
 15 17  1  0  0  0  0
 12 15  1  0  0  0  0
 13 14  2  0  0  0  0
M  END

>  <name>
Sulfamethizole

>  <ROTATABLE_BONDCOUNT>
2

>  <HBDScore>
0.5

>  <dipole>
10.64

>  <logD>
-0.36

>  <MPOScore>
5.234333333333334

>  <logDScore>
1.0

>  <MW>
270.33

>  <charge_dist(7.4)>
-0.83

>  <CNS>
FALSE

>  <ArRings>
2

>  <HBD>
2

>  <BALABAN_INDEX>
1.85

>  <bpKa>
1.95

>  <TPSAScore>
0.7343333333333334

>  <MWScore>
1.0

>  <bpKaScore>
1.0

>  <logPScore>
1.0

>  <MPO_area>
76.69

>  <TPSA>
97.97

>  <logP>
0.21

$$$$

  Mrv1722703221715202D          

 17 18  0  0  0  0            999 V2000
    0.0000    0.0000    0.0000 S   0  0  0  0  0  0  0  0  0  0  0  0
    0.2793    0.7794    0.0000 O   0  0  0  0  0  0  0  0  0  0  0  0
   -0.2923   -0.7664    0.0000 O   0  0  0  0  0  0  0  0  0  0  0  0
   -0.7794    0.2923    0.0000 N   0  0  0  0  0  0  0  0  0  0  0  0
    0.7664   -0.2793    0.0000 C   0  0  0  0  0  0  0  0  0  0  0  0
   -1.4224   -0.2273    0.0000 C   0  0  0  0  0  0  0  0  0  0  0  0
    0.8963   -1.0847    0.0000 C   0  0  0  0  0  0  0  0  0  0  0  0
    1.3965    0.2533    0.0000 C   0  0  0  0  0  0  0  0  0  0  0  0
   -1.3770   -1.0457    0.0000 N   0  0  0  0  0  0  0  0  0  0  0  0
   -2.2278   -0.0195    0.0000 C   0  0  0  0  0  0  0  0  0  0  0  0
    1.6628   -1.3640    0.0000 C   0  0  0  0  0  0  0  0  0  0  0  0
    2.1629   -0.0260    0.0000 C   0  0  0  0  0  0  0  0  0  0  0  0
   -2.1499   -1.3445    0.0000 O   0  0  0  0  0  0  0  0  0  0  0  0
   -2.6760   -0.7144    0.0000 C   0  0  0  0  0  0  0  0  0  0  0  0
    2.2928   -0.8314    0.0000 C   0  0  0  0  0  0  0  0  0  0  0  0
   -3.5074   -0.7599    0.0000 C   0  0  0  0  0  0  0  0  0  0  0  0
    3.0592   -1.1106    0.0000 N   0  0  0  0  0  0  0  0  0  0  0  0
  1  2  2  0  0  0  0
  1  3  2  0  0  0  0
  1  4  1  0  0  0  0
  1  5  1  0  0  0  0
  4  6  1  0  0  0  0
  5  7  2  0  0  0  0
  5  8  1  0  0  0  0
  6  9  2  0  0  0  0
  6 10  1  0  0  0  0
  7 11  1  0  0  0  0
  8 12  2  0  0  0  0
  9 13  1  0  0  0  0
 10 14  2  0  0  0  0
 11 15  2  0  0  0  0
 14 16  1  0  0  0  0
 15 17  1  0  0  0  0
 12 15  1  0  0  0  0
 13 14  1  0  0  0  0
M  END

>  <name>
Sulfamethoxazole

>  <ROTATABLE_BONDCOUNT>
2

>  <HBDScore>
0.5

>  <dipole>
13.45

>  <logD>
0.00

>  <MPOScore>
5.226

>  <logDScore>
1.0

>  <MW>
253.28

>  <charge_dist(7.4)>
-0.95

>  <CNS>
FALSE

>  <ArRings>
2

>  <HBD>
2

>  <BALABAN_INDEX>
1.85

>  <bpKa>
1.97

>  <TPSAScore>
0.726

>  <MWScore>
1.0

>  <bpKaScore>
1.0

>  <logPScore>
1.0

>  <MPO_area>
76.48

>  <TPSA>
98.22

>  <logP>
0.79

$$$$

  Mrv1722703221715202D          

 22 24  0  0  0  0            999 V2000
    0.0000    0.0000    0.0000 S   0  0  0  0  0  0  0  0  0  0  0  0
   -0.0065    0.8306    0.0000 O   0  0  0  0  0  0  0  0  0  0  0  0
   -0.0065   -0.8176    0.0000 O   0  0  0  0  0  0  0  0  0  0  0  0
   -0.8306    0.0065    0.0000 N   0  0  0  0  0  0  0  0  0  0  0  0
    0.8176    0.0065    0.0000 C   0  0  0  0  0  0  0  0  0  0  0  0
   -1.2459   -0.7008    0.0000 C   0  0  0  0  0  0  0  0  0  0  0  0
    1.2264   -0.7008    0.0000 C   0  0  0  0  0  0  0  0  0  0  0  0
    1.2199    0.7268    0.0000 C   0  0  0  0  0  0  0  0  0  0  0  0
   -2.0700   -0.7852    0.0000 N   0  0  0  0  0  0  0  0  0  0  0  0
   -0.9150   -1.4471    0.0000 C   0  0  0  0  0  0  0  0  0  0  0  0
    2.0441   -0.6943    0.0000 C   0  0  0  0  0  0  0  0  0  0  0  0
    2.0376    0.7333    0.0000 C   0  0  0  0  0  0  0  0  0  0  0  0
   -2.2452   -1.5833    0.0000 N   0  0  0  0  0  0  0  0  0  0  0  0
   -2.6281   -0.1687    0.0000 C   0  0  0  0  0  0  0  0  0  0  0  0
   -1.5314   -1.9922    0.0000 C   0  0  0  0  0  0  0  0  0  0  0  0
    2.4464    0.0260    0.0000 C   0  0  0  0  0  0  0  0  0  0  0  0
   -2.3815    0.6230    0.0000 C   0  0  0  0  0  0  0  0  0  0  0  0
   -3.4392   -0.3374    0.0000 C   0  0  0  0  0  0  0  0  0  0  0  0
    3.2640    0.0325    0.0000 N   0  0  0  0  0  0  0  0  0  0  0  0
   -2.9396    1.2394    0.0000 C   0  0  0  0  0  0  0  0  0  0  0  0
   -3.9973    0.2790    0.0000 C   0  0  0  0  0  0  0  0  0  0  0  0
   -3.7507    1.0707    0.0000 C   0  0  0  0  0  0  0  0  0  0  0  0
  1  2  2  0  0  0  0
  1  3  2  0  0  0  0
  1  4  1  0  0  0  0
  1  5  1  0  0  0  0
  4  6  1  0  0  0  0
  5  7  2  0  0  0  0
  5  8  1  0  0  0  0
  6  9  1  0  0  0  0
  6 10  2  0  0  0  0
  7 11  1  0  0  0  0
  8 12  2  0  0  0  0
  9 13  1  0  0  0  0
  9 14  1  0  0  0  0
 10 15  1  0  0  0  0
 11 16  2  0  0  0  0
 14 17  2  0  0  0  0
 14 18  1  0  0  0  0
 16 19  1  0  0  0  0
 17 20  1  0  0  0  0
 18 21  2  0  0  0  0
 20 22  2  0  0  0  0
 12 16  1  0  0  0  0
 13 15  2  0  0  0  0
 21 22  1  0  0  0  0
M  END

>  <name>
Sulfaphenazole

>  <ROTATABLE_BONDCOUNT>
3

>  <HBDScore>
0.5

>  <dipole>
9.67

>  <logD>
1.28

>  <MPOScore>
5.499666666666666

>  <logDScore>
1.0

>  <MW>
314.36

>  <charge_dist(7.4)>
-0.79

>  <CNS>
FALSE

>  <ArRings>
3

>  <HBD>
2

>  <BALABAN_INDEX>
1.58

>  <bpKa>
2.44

>  <TPSAScore>
0.9996666666666665

>  <MWScore>
1.0

>  <bpKaScore>
1.0

>  <logPScore>
1.0

>  <MPO_area>
83.33

>  <TPSA>
90.01

>  <logP>
1.81

$$$$

  Mrv1722703221715202D          

 28 30  0  0  0  0            999 V2000
    0.0000    0.0000    0.0000 S   0  0  0  0  0  0  0  0  0  0  0  0
    0.1270    0.8131    0.0000 O   0  0  0  0  0  0  0  0  0  0  0  0
   -0.1397   -0.8004    0.0000 O   0  0  0  0  0  0  0  0  0  0  0  0
    0.8004   -0.1270    0.0000 N   0  0  0  0  0  0  0  0  0  0  0  0
   -0.8131    0.1397    0.0000 C   0  0  0  0  0  0  0  0  0  0  0  0
    1.3149    0.5082    0.0000 C   0  0  0  0  0  0  0  0  0  0  0  0
   -1.1053    0.9147    0.0000 C   0  0  0  0  0  0  0  0  0  0  0  0
   -1.3403   -0.4828    0.0000 C   0  0  0  0  0  0  0  0  0  0  0  0
    1.0227    1.2832    0.0000 N   0  0  0  0  0  0  0  0  0  0  0  0
    2.1154    0.3811    0.0000 C   0  0  0  0  0  0  0  0  0  0  0  0
   -1.9184    1.0545    0.0000 C   0  0  0  0  0  0  0  0  0  0  0  0
   -2.1535   -0.3430    0.0000 C   0  0  0  0  0  0  0  0  0  0  0  0
    1.5373    1.9184    0.0000 C   0  0  0  0  0  0  0  0  0  0  0  0
    2.6299    1.0164    0.0000 C   0  0  0  0  0  0  0  0  0  0  0  0
   -2.4457    0.4319    0.0000 C   0  0  0  0  0  0  0  0  0  0  0  0
    2.3376    1.7914    0.0000 C   0  0  0  0  0  0  0  0  0  0  0  0
   -3.2587    0.5717    0.0000 N   0  0  0  0  0  0  0  0  0  0  0  0
   -3.7860   -0.0508    0.0000 N   0  0  0  0  0  0  0  0  0  0  0  0
   -4.5991    0.0889    0.0000 C   0  0  0  0  0  0  0  0  0  0  0  0
   -4.8913    0.8639    0.0000 C   0  0  0  0  0  0  0  0  0  0  0  0
   -5.1263   -0.5336    0.0000 C   0  0  0  0  0  0  0  0  0  0  0  0
   -5.7044    1.0037    0.0000 C   0  0  0  0  0  0  0  0  0  0  0  0
   -5.9394   -0.3938    0.0000 C   0  0  0  0  0  0  0  0  0  0  0  0
   -6.2316    0.3811    0.0000 C   0  0  0  0  0  0  0  0  0  0  0  0
   -5.9966    1.7786    0.0000 C   0  0  0  0  0  0  0  0  0  0  0  0
   -7.0448    0.5209    0.0000 O   0  0  0  0  0  0  0  0  0  0  0  0
   -6.8097    1.9184    0.0000 O   0  0  0  0  0  0  0  0  0  0  0  0
   -5.4821    2.4139    0.0000 O   0  0  0  0  0  0  0  0  0  0  0  0
  1  2  2  0  0  0  0
  1  3  2  0  0  0  0
  1  4  1  0  0  0  0
  1  5  1  0  0  0  0
  4  6  1  0  0  0  0
  5  7  2  0  0  0  0
  5  8  1  0  0  0  0
  6  9  2  0  0  0  0
  6 10  1  0  0  0  0
  7 11  1  0  0  0  0
  8 12  2  0  0  0  0
  9 13  1  0  0  0  0
 10 14  2  0  0  0  0
 11 15  2  0  0  0  0
 13 16  2  0  0  0  0
 15 17  1  0  0  0  0
 17 18  2  0  0  0  0
 18 19  1  0  0  0  0
 19 20  2  0  0  0  0
 19 21  1  0  0  0  0
 20 22  1  0  0  0  0
 21 23  2  0  0  0  0
 22 24  2  0  0  0  0
 22 25  1  0  0  0  0
 24 26  1  0  0  0  0
 25 27  2  0  0  0  0
 25 28  1  0  0  0  0
 12 15  1  0  0  0  0
 14 16  1  0  0  0  0
 23 24  1  0  0  0  0
M  END

>  <name>
Sulfasalazine

>  <ROTATABLE_BONDCOUNT>
5

>  <HBDScore>
0.16666666666666674

>  <dipole>
11.78

>  <logD>
0.25

>  <MPOScore>
3.267452380952381

>  <logDScore>
1.0

>  <MW>
398.39

>  <charge_dist(7.4)>
-1.82

>  <CNS>
FALSE

>  <ArRings>
3

>  <HBD>
3

>  <BALABAN_INDEX>
1.28

>  <bpKa>
-0.06

>  <TPSAScore>
0.0

>  <MWScore>
0.7257857142857144

>  <bpKaScore>
1.0

>  <logPScore>
0.375

>  <MPO_area>
34.34

>  <TPSA>
141.31

>  <logP>
4.25

$$$$

  Mrv1722703221715202D          

 29 32  0  0  0  0            999 V2000
    0.0000    0.0000    0.0000 S   0  0  2  0  0  0  0  0  0  0  0  0
   -0.1236   -0.8130    0.0000 O   0  0  0  0  0  0  0  0  0  0  0  0
   -0.6569    0.5138    0.0000 C   0  0  0  0  0  0  0  0  0  0  0  0
    0.7610    0.3187    0.0000 C   0  0  0  0  0  0  0  0  0  0  0  0
   -0.5463    1.3398    0.0000 C   0  0  0  0  0  0  0  0  0  0  0  0
   -1.4309    0.2081    0.0000 C   0  0  0  0  0  0  0  0  0  0  0  0
    1.4049   -0.1821    0.0000 C   0  0  0  0  0  0  0  0  0  0  0  0
   -1.2033    1.8536    0.0000 C   0  0  0  0  0  0  0  0  0  0  0  0
   -2.0878    0.7219    0.0000 C   0  0  0  0  0  0  0  0  0  0  0  0
    2.1659    0.1366    0.0000 C   0  0  0  0  0  0  0  0  0  0  0  0
   -1.9772    1.5480    0.0000 C   0  0  0  0  0  0  0  0  0  0  0  0
    2.8618   -0.2927    0.0000 C   0  0  0  0  0  0  0  0  0  0  0  0
    2.3610    0.9431    0.0000 C   0  0  0  0  0  0  0  0  0  0  0  0
    2.9138   -1.1122    0.0000 O   0  0  0  0  0  0  0  0  0  0  0  0
    3.4861    0.2472    0.0000 N   0  0  0  0  0  0  0  0  0  0  0  0
    1.8212    1.5805    0.0000 O   0  0  0  0  0  0  0  0  0  0  0  0
    3.1805    1.0081    0.0000 N   0  0  0  0  0  0  0  0  0  0  0  0
    4.2796    0.0520    0.0000 C   0  0  0  0  0  0  0  0  0  0  0  0
    3.6097    1.7171    0.0000 C   0  0  0  0  0  0  0  0  0  0  0  0
    4.5008   -0.7350    0.0000 C   0  0  0  0  0  0  0  0  0  0  0  0
    4.8455    0.6504    0.0000 C   0  0  0  0  0  0  0  0  0  0  0  0
    4.4292    1.6976    0.0000 C   0  0  0  0  0  0  0  0  0  0  0  0
    3.2130    2.4520    0.0000 C   0  0  0  0  0  0  0  0  0  0  0  0
    5.2943   -0.9301    0.0000 C   0  0  0  0  0  0  0  0  0  0  0  0
    5.6390    0.4553    0.0000 C   0  0  0  0  0  0  0  0  0  0  0  0
    4.8585    2.4065    0.0000 C   0  0  0  0  0  0  0  0  0  0  0  0
    3.6423    3.1610    0.0000 C   0  0  0  0  0  0  0  0  0  0  0  0
    5.8601   -0.3317    0.0000 C   0  0  0  0  0  0  0  0  0  0  0  0
    4.4618    3.1414    0.0000 C   0  0  0  0  0  0  0  0  0  0  0  0
  1  2  2  0  0  0  0
  1  3  1  0  0  0  0
  1  4  1  6  0  0  0
  3  5  2  0  0  0  0
  3  6  1  0  0  0  0
  4  7  1  0  0  0  0
  5  8  1  0  0  0  0
  6  9  2  0  0  0  0
  7 10  1  0  0  0  0
  8 11  2  0  0  0  0
 10 12  1  0  0  0  0
 10 13  1  0  0  0  0
 12 14  2  0  0  0  0
 12 15  1  0  0  0  0
 13 16  2  0  0  0  0
 13 17  1  0  0  0  0
 15 18  1  0  0  0  0
 17 19  1  0  0  0  0
 18 20  2  0  0  0  0
 18 21  1  0  0  0  0
 19 22  2  0  0  0  0
 19 23  1  0  0  0  0
 20 24  1  0  0  0  0
 21 25  2  0  0  0  0
 22 26  1  0  0  0  0
 23 27  2  0  0  0  0
 24 28  2  0  0  0  0
 26 29  2  0  0  0  0
  9 11  1  0  0  0  0
 15 17  1  0  0  0  0
 25 28  1  0  0  0  0
 27 29  1  0  0  0  0
M  END

>  <name>
Sulfinpyrazone

>  <ROTATABLE_BONDCOUNT>
6

>  <HBDScore>
1.0

>  <dipole>
4.82

>  <logD>
1.10

>  <MPOScore>
5.587285714285715

>  <logDScore>
1.0

>  <MW>
404.48

>  <charge_dist(7.4)>
-1.00

>  <CNS>
FALSE

>  <ArRings>
3

>  <HBD>
0

>  <BALABAN_INDEX>
1.34

>  <bpKa>
-8.16

>  <TPSAScore>
1.0

>  <MWScore>
0.6822857142857142

>  <bpKaScore>
1.0

>  <logPScore>
0.905

>  <MPO_area>
86.75

>  <TPSA>
57.69

>  <logP>
3.19

$$$$

  Mrv1722703221715202D          

 25 26  0  0  0  0            999 V2000
    0.0000    0.0000    0.0000 S   0  0  0  0  0  0  0  0  0  0  0  0
    0.0901   -0.8110    0.0000 O   0  0  0  0  0  0  0  0  0  0  0  0
   -0.1030    0.8239    0.0000 O   0  0  0  0  0  0  0  0  0  0  0  0
   -0.8239   -0.0901    0.0000 C   0  0  0  0  0  0  0  0  0  0  0  0
    0.8110    0.1030    0.0000 C   0  0  0  0  0  0  0  0  0  0  0  0
   -1.3260    0.5729    0.0000 C   0  0  0  0  0  0  0  0  0  0  0  0
   -1.1522   -0.8433    0.0000 C   0  0  0  0  0  0  0  0  0  0  0  0
    1.3003   -0.5472    0.0000 C   0  0  0  0  0  0  0  0  0  0  0  0
    1.1265    0.8690    0.0000 C   0  0  0  0  0  0  0  0  0  0  0  0
   -2.1500    0.4828    0.0000 C   0  0  0  0  0  0  0  0  0  0  0  0
   -1.9762   -0.9334    0.0000 C   0  0  0  0  0  0  0  0  0  0  0  0
    2.1113   -0.4442    0.0000 C   0  0  0  0  0  0  0  0  0  0  0  0
    1.9375    0.9720    0.0000 C   0  0  0  0  0  0  0  0  0  0  0  0
   -2.4783   -0.2704    0.0000 C   0  0  0  0  0  0  0  0  0  0  0  0
    2.4268    0.3219    0.0000 C   0  0  0  0  0  0  0  0  0  0  0  0
   -3.3022   -0.3605    0.0000 N   0  0  0  0  0  0  0  0  0  0  0  0
    3.2378    0.4248    0.0000 N   0  0  0  0  0  0  0  0  0  0  0  0
   -3.8043    0.3025    0.0000 C   0  0  0  0  0  0  0  0  0  0  0  0
    3.7271   -0.2253    0.0000 C   0  0  0  0  0  0  0  0  0  0  0  0
   -4.6282    0.2124    0.0000 S   0  0  0  0  0  0  0  0  0  0  0  0
    4.5381   -0.1223    0.0000 S   0  0  0  0  0  0  0  0  0  0  0  0
   -4.9565   -0.5407    0.0000 O   0  0  0  0  0  0  0  0  0  0  0  0
   -5.1303    0.8754    0.0000 O   0  0  0  0  0  0  0  0  0  0  0  0
    4.8535    0.6437    0.0000 O   0  0  0  0  0  0  0  0  0  0  0  0
    5.0273   -0.7725    0.0000 O   0  0  0  0  0  0  0  0  0  0  0  0
  1  2  2  0  0  0  0
  1  3  2  0  0  0  0
  1  4  1  0  0  0  0
  1  5  1  0  0  0  0
  4  6  2  0  0  0  0
  4  7  1  0  0  0  0
  5  8  2  0  0  0  0
  5  9  1  0  0  0  0
  6 10  1  0  0  0  0
  7 11  2  0  0  0  0
  8 12  1  0  0  0  0
  9 13  2  0  0  0  0
 10 14  2  0  0  0  0
 12 15  2  0  0  0  0
 14 16  1  0  0  0  0
 15 17  1  0  0  0  0
 16 18  1  0  0  0  0
 17 19  1  0  0  0  0
 18 20  1  0  0  0  0
 19 21  1  0  0  0  0
 20 22  2  0  0  0  0
 20 23  1  0  0  0  0
 21 24  2  0  0  0  0
 21 25  1  0  0  0  0
 11 14  1  0  0  0  0
 13 15  1  0  0  0  0
M  END

>  <name>
Sulfoxone

>  <ROTATABLE_BONDCOUNT>
8

>  <HBDScore>
0.0

>  <dipole>
9.57

>  <logD>
-3.26

>  <MPOScore>
3.6823571428571427

>  <logDScore>
1.0

>  <MW>
404.47

>  <charge_dist(7.4)>
-2.00

>  <CNS>
FALSE

>  <ArRings>
2

>  <HBD>
4

>  <BALABAN_INDEX>
1.61

>  <bpKa>
-0.06

>  <TPSAScore>
0.0

>  <MWScore>
0.6823571428571427

>  <bpKaScore>
1.0

>  <logPScore>
1.0

>  <MPO_area>
44.71

>  <TPSA>
132.80

>  <logP>
1.27

$$$$

  Mrv1722703221715202D          

 20 21  0  0  0  0            999 V2000
    0.0000    0.0000    0.0000 S   0  0  0  0  0  0  0  0  0  0  0  0
   -0.1293   -0.8082    0.0000 O   0  0  0  0  0  0  0  0  0  0  0  0
    0.1164    0.8211    0.0000 O   0  0  0  0  0  0  0  0  0  0  0  0
   -0.8211    0.1293    0.0000 N   0  0  0  0  0  0  0  0  0  0  0  0
    0.8082   -0.1164    0.0000 C   0  0  0  0  0  0  0  0  0  0  0  0
   -1.1314    0.8986    0.0000 C   0  0  0  0  0  0  0  0  0  0  0  0
    1.3124    0.5366    0.0000 C   0  0  0  0  0  0  0  0  0  0  0  0
    2.1206    0.4202    0.0000 C   0  0  0  0  0  0  0  0  0  0  0  0
    1.0021    1.3060    0.0000 C   0  0  0  0  0  0  0  0  0  0  0  0
    2.6249    1.0732    0.0000 C   0  0  0  0  0  0  0  0  0  0  0  0
    1.5064    1.9589    0.0000 C   0  0  0  0  0  0  0  0  0  0  0  0
    2.3145    1.8426    0.0000 C   0  0  0  0  0  0  0  0  0  0  0  0
    3.4395    1.1314    0.0000 C   0  0  0  0  0  0  0  0  0  0  0  0
    2.9416    2.3727    0.0000 N   0  0  0  0  0  2  0  0  0  0  0  0
    3.6399    1.9331    0.0000 C   0  0  0  0  0  0  0  0  0  0  0  0
    3.9567    0.5043    0.0000 C   0  0  0  0  0  0  0  0  0  0  0  0
    4.7584    0.6465    0.0000 C   0  0  0  0  0  0  0  0  0  0  0  0
    5.2756    0.0194    0.0000 N   0  0  0  0  0  0  0  0  0  0  0  0
    6.0773    0.1616    0.0000 C   0  0  0  0  0  0  0  0  0  0  0  0
    4.9846   -0.7435    0.0000 C   0  0  0  0  0  0  0  0  0  0  0  0
  1  2  2  0  0  0  0
  1  3  2  0  0  0  0
  1  4  1  0  0  0  0
  1  5  1  0  0  0  0
  4  6  1  0  0  0  0
  5  7  1  0  0  0  0
  7  8  2  0  0  0  0
  7  9  1  0  0  0  0
  8 10  1  0  0  0  0
  9 11  2  0  0  0  0
 10 12  2  0  0  0  0
 10 13  1  0  0  0  0
 12 14  1  0  0  0  0
 13 15  2  0  0  0  0
 13 16  1  0  0  0  0
 16 17  1  0  0  0  0
 17 18  1  0  0  0  0
 18 19  1  0  0  0  0
 18 20  1  0  0  0  0
 11 12  1  0  0  0  0
 14 15  1  0  0  0  0
M  RAD  1  14   2
M  END

>  <name>
Sumatriptan

>  <ROTATABLE_BONDCOUNT>
5

>  <HBDScore>
0.8333333333333334

>  <logD>
-1.11

>  <MPOScore>
5.268333333333333

>  <logDScore>
1.0

>  <MW>
294.39

>  <charge_dist(7.4)>
0.98

>  <CNS>
FALSE

>  <ArRings>
2

>  <HBD>
1

>  <BALABAN_INDEX>
1.87

>  <bpKa>
9.13

>  <TPSAScore>
1.0

>  <MWScore>
1.0

>  <bpKaScore>
0.4349999999999996

>  <logPScore>
1.0

>  <MPO_area>
77.18

>  <TPSA>
62.30

>  <logP>
0.62

$$$$

  Mrv1722703221715202D          

 29 31  0  0  0  0            999 V2000
    0.0000    0.0000    0.0000 F   0  0  0  0  0  0  0  0  0  0  0  0
   -0.4197    0.7167    0.0000 C   0  0  0  0  0  0  0  0  0  0  0  0
   -1.2460    0.7231    0.0000 C   0  0  0  0  0  0  0  0  0  0  0  0
   -0.0194    1.4332    0.0000 C   0  0  0  0  0  0  0  0  0  0  0  0
   -1.6657    1.4397    0.0000 C   0  0  0  0  0  0  0  0  0  0  0  0
   -0.4390    2.1499    0.0000 C   0  0  0  0  0  0  0  0  0  0  0  0
   -1.2654    2.1564    0.0000 C   0  0  0  0  0  0  0  0  0  0  0  0
   -2.4727    1.6140    0.0000 C   0  0  0  0  0  0  0  0  0  0  0  0
   -1.8206    2.7697    0.0000 N   0  0  0  0  0  0  0  0  0  0  0  0
   -2.5631    2.4340    0.0000 C   0  0  0  0  0  0  0  0  0  0  0  0
   -3.0860    1.0717    0.0000 C   0  0  0  0  0  0  0  0  0  0  0  0
   -3.2797    2.8472    0.0000 O   0  0  0  0  0  0  0  0  0  0  0  0
   -3.8737    1.3300    0.0000 C   0  0  0  0  0  0  0  0  0  0  0  0
   -4.1319    2.1176    0.0000 N   0  0  0  0  0  0  0  0  0  0  0  0
   -4.5452    0.8522    0.0000 C   0  0  0  0  0  0  0  0  0  0  0  0
   -4.9583    2.1241    0.0000 C   0  0  0  0  0  0  0  0  0  0  0  0
   -5.2166    1.3429    0.0000 C   0  0  0  0  0  0  0  0  0  0  0  0
   -4.5516    0.0388    0.0000 C   0  0  0  0  0  0  0  0  0  0  0  0
   -5.4490    2.7955    0.0000 C   0  0  0  0  0  0  0  0  0  0  0  0
   -6.0043    1.0975    0.0000 C   0  0  0  0  0  0  0  0  0  0  0  0
   -6.1785    0.3034    0.0000 O   0  0  0  0  0  0  0  0  0  0  0  0
   -6.6175    1.6528    0.0000 N   0  0  0  0  0  0  0  0  0  0  0  0
   -7.4052    1.4075    0.0000 C   0  0  0  0  0  0  0  0  0  0  0  0
   -8.0186    1.9627    0.0000 C   0  0  0  0  0  0  0  0  0  0  0  0
   -8.8062    1.7173    0.0000 N   0  0  0  0  0  0  0  0  0  0  0  0
   -9.4195    2.2726    0.0000 C   0  0  0  0  0  0  0  0  0  0  0  0
   -8.9805    0.9232    0.0000 C   0  0  0  0  0  0  0  0  0  0  0  0
  -10.2072    2.0272    0.0000 C   0  0  0  0  0  0  0  0  0  0  0  0
   -9.7682    0.6779    0.0000 C   0  0  0  0  0  0  0  0  0  0  0  0
  1  2  1  0  0  0  0
  2  3  2  0  0  0  0
  2  4  1  0  0  0  0
  3  5  1  0  0  0  0
  4  6  2  0  0  0  0
  5  7  2  0  0  0  0
  5  8  1  0  0  0  0
  7  9  1  0  0  0  0
  8 10  1  0  0  0  0
  8 11  2  0  0  0  0
 10 12  2  0  0  0  0
 11 13  1  0  0  0  0
 13 14  1  0  0  0  0
 13 15  2  0  0  0  0
 14 16  1  0  0  0  0
 15 17  1  0  0  0  0
 15 18  1  0  0  0  0
 16 19  1  0  0  0  0
 17 20  1  0  0  0  0
 20 21  2  0  0  0  0
 20 22  1  0  0  0  0
 22 23  1  0  0  0  0
 23 24  1  0  0  0  0
 24 25  1  0  0  0  0
 25 26  1  0  0  0  0
 25 27  1  0  0  0  0
 26 28  1  0  0  0  0
 27 29  1  0  0  0  0
  6  7  1  0  0  0  0
  9 10  1  0  0  0  0
 16 17  2  0  0  0  0
M  END

>  <name>
Sunitinib

>  <ROTATABLE_BONDCOUNT>
7

>  <HBDScore>
0.16666666666666674

>  <dipole>
4.06

>  <logD>
1.28

>  <MPOScore>
4.371795238095238

>  <logDScore>
1.0

>  <MW>
398.482

>  <charge_dist(7.4)>
0.98

>  <CNS>
FALSE

>  <ArRings>
2

>  <HBD>
3

>  <BALABAN_INDEX>
1.39

>  <bpKa>
9.04

>  <TPSAScore>
1.0

>  <MWScore>
0.7251285714285712

>  <bpKaScore>
0.4800000000000004

>  <logPScore>
1.0

>  <MPO_area>
55.33

>  <TPSA>
77.23

>  <logP>
2.93

$$$$

  Mrv1722703221715202D          

 28 29  0  0  0  0            999 V2000
    0.0000    0.0000    0.0000 S   0  0  0  0  0  0  0  0  0  0  0  0
   -0.5767    0.6020    0.0000 O   0  0  0  0  0  0  0  0  0  0  0  0
    0.5640   -0.5894    0.0000 O   0  0  0  0  0  0  0  0  0  0  0  0
    0.5894    0.5767    0.0000 N   0  0  0  0  0  0  0  0  0  0  0  0
   -0.6020   -0.5640    0.0000 C   0  0  0  0  0  0  0  0  0  0  0  0
   -0.4119   -1.3625    0.0000 C   0  0  0  0  0  0  0  0  0  0  0  0
   -1.4006   -0.3232    0.0000 C   0  0  0  0  0  0  0  0  0  0  0  0
    0.3739   -1.5907    0.0000 O   0  0  0  0  0  0  0  0  0  0  0  0
   -1.0140   -1.9266    0.0000 C   0  0  0  0  0  0  0  0  0  0  0  0
   -2.0026   -0.8872    0.0000 C   0  0  0  0  0  0  0  0  0  0  0  0
    0.5640   -2.3892    0.0000 C   0  0  0  0  0  0  0  0  0  0  0  0
   -1.8125   -1.6858    0.0000 C   0  0  0  0  0  0  0  0  0  0  0  0
   -2.8012   -0.6464    0.0000 C   0  0  0  0  0  0  0  0  0  0  0  0
   -3.0039    0.1648    0.0000 C   0  0  1  0  0  0  0  0  0  0  0  0
   -3.8024    0.4056    0.0000 N   0  0  0  0  0  0  0  0  0  0  0  0
   -2.4146    0.7415    0.0000 C   0  0  0  0  0  0  0  0  0  0  0  0
   -4.4045   -0.1584    0.0000 C   0  0  0  0  0  0  0  0  0  0  0  0
   -5.2031    0.0824    0.0000 C   0  0  0  0  0  0  0  0  0  0  0  0
   -5.8051   -0.4816    0.0000 O   0  0  0  0  0  0  0  0  0  0  0  0
   -6.6036   -0.2408    0.0000 C   0  0  0  0  0  0  0  0  0  0  0  0
   -7.2057   -0.8049    0.0000 C   0  0  0  0  0  0  0  0  0  0  0  0
   -6.8064    0.5704    0.0000 C   0  0  0  0  0  0  0  0  0  0  0  0
   -7.0156   -1.6034    0.0000 O   0  0  0  0  0  0  0  0  0  0  0  0
   -8.0042   -0.5640    0.0000 C   0  0  0  0  0  0  0  0  0  0  0  0
   -7.6050    0.8112    0.0000 C   0  0  0  0  0  0  0  0  0  0  0  0
   -7.6176   -2.1674    0.0000 C   0  0  0  0  0  0  0  0  0  0  0  0
   -8.2070    0.2471    0.0000 C   0  0  0  0  0  0  0  0  0  0  0  0
   -7.4275   -2.9659    0.0000 C   0  0  0  0  0  0  0  0  0  0  0  0
  1  2  2  0  0  0  0
  1  3  2  0  0  0  0
  1  4  1  0  0  0  0
  1  5  1  0  0  0  0
  5  6  2  0  0  0  0
  5  7  1  0  0  0  0
  6  8  1  0  0  0  0
  6  9  1  0  0  0  0
  7 10  2  0  0  0  0
  8 11  1  0  0  0  0
  9 12  2  0  0  0  0
 10 13  1  0  0  0  0
 13 14  1  0  0  0  0
 14 15  1  1  0  0  0
 14 16  1  0  0  0  0
 15 17  1  0  0  0  0
 17 18  1  0  0  0  0
 18 19  1  0  0  0  0
 19 20  1  0  0  0  0
 20 21  2  0  0  0  0
 20 22  1  0  0  0  0
 21 23  1  0  0  0  0
 21 24  1  0  0  0  0
 22 25  2  0  0  0  0
 23 26  1  0  0  0  0
 24 27  2  0  0  0  0
 26 28  1  0  0  0  0
 10 12  1  0  0  0  0
 25 27  1  0  0  0  0
M  END

>  <name>
Tamsulosin

>  <ROTATABLE_BONDCOUNT>
11

>  <HBDScore>
0.5

>  <dipole>
9.02

>  <logD>
0.47

>  <MPOScore>
4.184166666666667

>  <logDScore>
1.0

>  <MW>
408.51

>  <charge_dist(7.4)>
0.98

>  <CNS>
FALSE

>  <ArRings>
2

>  <HBD>
2

>  <BALABAN_INDEX>
1.56

>  <bpKa>
9.28

>  <TPSAScore>
0.6706666666666667

>  <MWScore>
0.6535000000000001

>  <bpKaScore>
0.3600000000000003

>  <logPScore>
1.0

>  <MPO_area>
49.59

>  <TPSA>
99.88

>  <logP>
2.04

$$$$

  Mrv1722703221715202D          

 27 30  0  0  0  0            999 V2000
    0.0000    0.0000    0.0000 F   0  0  0  0  0  0  0  0  0  0  0  0
   -0.3950    0.7316    0.0000 C   0  0  0  0  0  0  0  0  0  0  0  0
    0.0324    1.4374    0.0000 C   0  0  0  0  0  0  0  0  0  0  0  0
   -1.2237    0.7640    0.0000 C   0  0  0  0  0  0  0  0  0  0  0  0
    0.8481    1.4180    0.0000 C   0  0  0  0  0  0  0  0  0  0  0  0
   -0.3626    2.1690    0.0000 C   0  0  0  0  0  0  0  0  0  0  0  0
   -1.6186    1.4956    0.0000 C   0  0  0  0  0  0  0  0  0  0  0  0
    1.2755    2.1237    0.0000 C   0  0  0  0  0  0  0  0  0  0  0  0
    1.2302    0.6992    0.0000 C   0  0  0  0  0  0  0  0  0  0  0  0
   -1.1913    2.2013    0.0000 C   0  0  0  0  0  0  0  0  0  0  0  0
   -2.4474    1.5280    0.0000 N   0  0  0  0  0  0  0  0  0  0  0  0
    2.0913    2.1042    0.0000 N   0  0  0  0  0  0  0  0  0  0  0  0
    2.0459    0.6798    0.0000 C   0  0  0  0  0  0  0  0  0  0  0  0
   -2.9136    2.2143    0.0000 C   0  0  0  0  0  0  0  0  0  0  0  0
   -2.9589    0.8870    0.0000 C   0  0  0  0  0  0  0  0  0  0  0  0
    2.4733    1.3855    0.0000 C   0  0  0  0  0  0  0  0  0  0  0  0
   -2.6416    2.9912    0.0000 O   0  0  0  0  0  0  0  0  0  0  0  0
   -3.7099    1.9942    0.0000 O   0  0  0  0  0  0  0  0  0  0  0  0
   -3.7358    1.1719    0.0000 C   0  0  1  0  0  0  0  0  0  0  0  0
    3.2890    1.3661    0.0000 C   0  0  0  0  0  0  0  0  0  0  0  0
   -4.4221    0.7187    0.0000 C   0  0  0  0  0  0  0  0  0  0  0  0
    3.7423    0.6928    0.0000 N   0  0  0  0  0  0  0  0  0  0  0  0
    3.7876    2.0201    0.0000 N   0  0  0  0  0  0  0  0  0  0  0  0
   -5.1667    1.0877    0.0000 O   0  0  0  0  0  0  0  0  0  0  0  0
    4.5257    0.9259    0.0000 N   0  0  0  0  0  0  0  0  0  0  0  0
    4.5516    1.7481    0.0000 N   0  0  0  0  0  0  0  0  0  0  0  0
    5.2250    2.2143    0.0000 C   0  0  0  0  0  0  0  0  0  0  0  0
  1  2  1  0  0  0  0
  2  3  2  0  0  0  0
  2  4  1  0  0  0  0
  3  5  1  0  0  0  0
  3  6  1  0  0  0  0
  4  7  2  0  0  0  0
  5  8  2  0  0  0  0
  5  9  1  0  0  0  0
  6 10  2  0  0  0  0
  7 11  1  0  0  0  0
  8 12  1  0  0  0  0
  9 13  2  0  0  0  0
 11 14  1  0  0  0  0
 11 15  1  0  0  0  0
 12 16  2  0  0  0  0
 14 17  2  0  0  0  0
 14 18  1  0  0  0  0
 15 19  1  0  0  0  0
 16 20  1  0  0  0  0
 19 21  1  6  0  0  0
 20 22  1  0  0  0  0
 20 23  2  0  0  0  0
 21 24  1  0  0  0  0
 22 25  2  0  0  0  0
 23 26  1  0  0  0  0
 26 27  1  0  0  0  0
  7 10  1  0  0  0  0
 13 16  1  0  0  0  0
 18 19  1  0  0  0  0
 25 26  1  0  0  0  0
M  END

>  <name>
Tedizolid

>  <ROTATABLE_BONDCOUNT>
4

>  <HBDScore>
0.8333333333333334

>  <dipole>
8.11

>  <logD>
2.12

>  <MPOScore>
5.157447619047619

>  <logDScore>
0.94

>  <MW>
370.344

>  <charge_dist(7.4)>
-0.00

>  <CNS>
FALSE

>  <ArRings>
3

>  <HBD>
1

>  <BALABAN_INDEX>
1.26

>  <bpKa>
-1.69

>  <TPSAScore>
0.45799999999999985

>  <MWScore>
0.9261142857142858

>  <bpKaScore>
1.0

>  <logPScore>
1.0

>  <MPO_area>
73.7

>  <TPSA>
106.26

>  <logP>
2.12

$$$$

  Mrv1722703221715202D          

 22 23  0  0  0  0            999 V2000
    0.0000    0.0000    0.0000 O   0  0  0  0  0  0  0  0  0  0  0  0
   -0.3288    0.7608    0.0000 C   0  0  0  0  0  0  0  0  0  0  0  0
   -0.4965   -0.6513    0.0000 C   0  0  0  0  0  0  0  0  0  0  0  0
   -1.1477    0.8640    0.0000 C   0  0  0  0  0  0  0  0  0  0  0  0
    0.1547    1.4250    0.0000 C   0  0  0  0  0  0  0  0  0  0  0  0
   -1.4766    1.6249    0.0000 C   0  0  0  0  0  0  0  0  0  0  0  0
   -0.1741    2.1858    0.0000 C   0  0  0  0  0  0  0  0  0  0  0  0
   -0.9930    2.2890    0.0000 C   0  0  0  0  0  0  0  0  0  0  0  0
   -2.2567    1.8957    0.0000 C   0  0  0  0  0  0  0  0  0  0  0  0
   -1.4702    2.9661    0.0000 N   0  0  0  0  0  2  0  0  0  0  0  0
   -2.2503    2.7210    0.0000 C   0  0  0  0  0  0  0  0  0  0  0  0
   -2.9338    1.4314    0.0000 C   0  0  0  0  0  0  0  0  0  0  0  0
   -3.6818    1.7796    0.0000 N   0  0  0  0  0  0  0  0  0  0  0  0
   -4.3588    1.3154    0.0000 N   0  0  0  0  0  0  0  0  0  0  0  0
   -5.1068    1.6635    0.0000 C   0  0  0  0  0  0  0  0  0  0  0  0
   -5.1906    2.4824    0.0000 N   0  0  0  0  0  0  0  0  0  0  0  0
   -5.7838    1.1993    0.0000 N   0  0  0  0  0  0  0  0  0  0  0  0
   -6.5318    1.5475    0.0000 C   0  0  0  0  0  0  0  0  0  0  0  0
   -7.2088    1.0833    0.0000 C   0  0  0  0  0  0  0  0  0  0  0  0
   -7.9567    1.4314    0.0000 C   0  0  0  0  0  0  0  0  0  0  0  0
   -8.6338    0.9672    0.0000 C   0  0  0  0  0  0  0  0  0  0  0  0
   -9.3817    1.3154    0.0000 C   0  0  0  0  0  0  0  0  0  0  0  0
  1  2  1  0  0  0  0
  1  3  1  0  0  0  0
  2  4  2  0  0  0  0
  2  5  1  0  0  0  0
  4  6  1  0  0  0  0
  5  7  2  0  0  0  0
  6  8  2  0  0  0  0
  6  9  1  0  0  0  0
  8 10  1  0  0  0  0
  9 11  2  0  0  0  0
  9 12  1  0  0  0  0
 12 13  2  0  0  0  0
 13 14  1  0  0  0  0
 14 15  1  0  0  0  0
 15 16  2  0  0  0  0
 15 17  1  0  0  0  0
 17 18  1  0  0  0  0
 18 19  1  0  0  0  0
 19 20  1  0  0  0  0
 20 21  1  0  0  0  0
 21 22  1  0  0  0  0
  7  8  1  0  0  0  0
 10 11  1  0  0  0  0
M  RAD  1  10   2
M  END

>  <name>
Tegaserod

>  <ROTATABLE_BONDCOUNT>
7

>  <HBDScore>
0.16666666666666674

>  <logD>
1.63

>  <MPOScore>
4.951666666666667

>  <logDScore>
1.0

>  <MW>
300.386

>  <charge_dist(7.4)>
0.91

>  <CNS>
FALSE

>  <ArRings>
2

>  <HBD>
3

>  <BALABAN_INDEX>
1.46

>  <bpKa>
8.43

>  <TPSAScore>
1.0

>  <MWScore>
1.0

>  <bpKaScore>
0.7850000000000001

>  <logPScore>
1.0

>  <MPO_area>
68.04

>  <TPSA>
82.39

>  <logP>
2.68

$$$$

  Mrv1722703221715202D          

 49 53  0  0  0  0            999 V2000
    0.0000    0.0000    0.0000 O   0  0  0  0  0  0  0  0  0  0  0  0
    0.6958   -0.4292    0.0000 C   0  0  0  0  0  0  0  0  0  0  0  0
    1.4175   -0.0325    0.0000 N   0  0  0  0  0  0  0  0  0  0  0  0
    0.6697   -1.2485    0.0000 C   0  0  0  0  0  0  0  0  0  0  0  0
    1.4305    0.7998    0.0000 C   0  0  2  0  0  0  0  0  0  0  0  0
    1.3655   -1.6776    0.0000 N   0  0  0  0  0  0  0  0  0  0  0  0
   -0.0650   -1.6321    0.0000 C   0  0  0  0  0  0  0  0  0  0  0  0
    2.1522    1.1964    0.0000 C   0  0  0  0  0  0  0  0  0  0  0  0
    0.7218    1.2419    0.0000 C   0  0  0  0  0  0  0  0  0  0  0  0
    1.3395   -2.4968    0.0000 C   0  0  0  0  0  0  0  0  0  0  0  0
   -0.0910   -2.4514    0.0000 N   0  0  0  0  0  0  0  0  0  0  0  0
    2.1653    2.0287    0.0000 O   0  0  0  0  0  0  0  0  0  0  0  0
    2.8480    0.7673    0.0000 N   0  0  0  0  0  0  0  0  0  0  0  0
    0.7347    2.0742    0.0000 C   0  0  0  0  0  0  0  0  0  0  0  0
   -0.0130    0.8583    0.0000 C   0  0  0  0  0  0  0  0  0  0  0  0
    0.6047   -2.8805    0.0000 C   0  0  0  0  0  0  0  0  0  0  0  0
    3.5697    1.1639    0.0000 C   0  0  2  0  0  0  0  0  0  0  0  0
    0.0260    2.5164    0.0000 C   0  0  0  0  0  0  0  0  0  0  0  0
   -0.7218    1.3004    0.0000 C   0  0  0  0  0  0  0  0  0  0  0  0
    4.2654    0.7347    0.0000 C   0  0  0  0  0  0  0  0  0  0  0  0
    3.5827    1.9962    0.0000 C   0  0  0  0  0  0  0  0  0  0  0  0
   -0.7087    2.1327    0.0000 C   0  0  0  0  0  0  0  0  0  0  0  0
    4.9872    1.1314    0.0000 O   0  0  0  0  0  0  0  0  0  0  0  0
    4.2395   -0.0845    0.0000 N   0  0  0  0  0  0  0  0  0  0  0  0
    2.7505    2.0222    0.0000 C   0  0  0  0  0  0  0  0  0  0  0  0
    4.4020    1.9832    0.0000 C   0  0  0  0  0  0  0  0  0  0  0  0
    3.5958    2.8284    0.0000 C   0  0  0  0  0  0  0  0  0  0  0  0
    4.8897   -0.5787    0.0000 C   0  0  2  0  0  0  0  0  0  0  0  0
    3.5502   -0.5462    0.0000 C   0  0  0  0  0  0  0  0  0  0  0  0
    5.6765   -0.3381    0.0000 C   0  0  0  0  0  0  0  0  0  0  0  0
    4.6036   -1.3525    0.0000 C   0  0  2  0  0  0  0  0  0  0  0  0
    3.7778   -1.3329    0.0000 C   0  0  1  0  0  0  0  0  0  0  0  0
    5.8650    0.4682    0.0000 O   0  0  0  0  0  0  0  0  0  0  0  0
    6.2682   -0.9038    0.0000 N   0  0  0  0  0  0  0  0  0  0  0  0
    4.8312   -2.1392    0.0000 C   0  0  0  0  0  0  0  0  0  0  0  0
    3.4917   -2.1067    0.0000 C   0  0  0  0  0  0  0  0  0  0  0  0
    7.0549   -0.6632    0.0000 C   0  0  2  0  0  0  0  0  0  0  0  0
    4.1419   -2.6009    0.0000 C   0  0  0  0  0  0  0  0  0  0  0  0
    7.2435    0.1495    0.0000 C   0  0  0  0  0  0  0  0  0  0  0  0
    7.6466   -1.2289    0.0000 C   0  0  0  0  0  0  0  0  0  0  0  0
    6.6388    0.7283    0.0000 O   0  0  0  0  0  0  0  0  0  0  0  0
    8.0303    0.3901    0.0000 C   0  0  0  0  0  0  0  0  0  0  0  0
    8.4334   -0.9884    0.0000 C   0  0  0  0  0  0  0  0  0  0  0  0
    8.6220   -0.1756    0.0000 O   0  0  0  0  0  0  0  0  0  0  0  0
    8.2188    1.2029    0.0000 N   0  0  0  0  0  0  0  0  0  0  0  0
    9.0251   -1.5540    0.0000 C   0  0  0  0  0  0  0  0  0  0  0  0
    9.0056    1.4435    0.0000 C   0  0  0  0  0  0  0  0  0  0  0  0
    9.5713    2.0482    0.0000 C   0  0  0  0  0  0  0  0  0  0  0  0
    9.7989    1.2549    0.0000 C   0  0  0  0  0  0  0  0  0  0  0  0
  1  2  2  0  0  0  0
  2  3  1  0  0  0  0
  2  4  1  0  0  0  0
  5  3  1  1  0  0  0
  4  6  2  0  0  0  0
  4  7  1  0  0  0  0
  5  8  1  0  0  0  0
  5  9  1  0  0  0  0
  6 10  1  0  0  0  0
  7 11  2  0  0  0  0
  8 12  2  0  0  0  0
  8 13  1  0  0  0  0
  9 14  1  0  0  0  0
  9 15  1  0  0  0  0
 10 16  2  0  0  0  0
 17 13  1  1  0  0  0
 14 18  1  0  0  0  0
 15 19  1  0  0  0  0
 17 20  1  0  0  0  0
 17 21  1  0  0  0  0
 18 22  1  0  0  0  0
 20 23  2  0  0  0  0
 20 24  1  0  0  0  0
 21 25  1  0  0  0  0
 21 26  1  0  0  0  0
 21 27  1  0  0  0  0
 24 28  1  0  0  0  0
 24 29  1  0  0  0  0
 28 30  1  6  0  0  0
 28 31  1  0  0  0  0
 32 29  1  1  0  0  0
 30 33  2  0  0  0  0
 30 34  1  0  0  0  0
 31 35  1  1  0  0  0
 32 36  1  0  0  0  0
 37 34  1  6  0  0  0
 35 38  1  0  0  0  0
 37 39  1  0  0  0  0
 37 40  1  0  0  0  0
 39 41  2  0  0  0  0
 39 42  1  0  0  0  0
 40 43  1  0  0  0  0
 42 44  2  0  0  0  0
 42 45  1  0  0  0  0
 43 46  1  0  0  0  0
 45 47  1  0  0  0  0
 47 48  1  0  0  0  0
 47 49  1  0  0  0  0
 11 16  1  0  0  0  0
 19 22  1  0  0  0  0
 31 32  1  0  0  0  0
 36 38  1  0  0  0  0
 48 49  1  0  0  0  0
M  END

>  <name>
Telaprevir

>  <ROTATABLE_BONDCOUNT>
14

>  <HBDScore>
0.0

>  <dipole>
6.58

>  <logD>
2.58

>  <MPOScore>
2.71

>  <logDScore>
0.71

>  <MW>
679.863

>  <charge_dist(7.4)>
-0.00

>  <CNS>
FALSE

>  <ArRings>
1

>  <HBD>
4

>  <BALABAN_INDEX>
1.20

>  <bpKa>
-0.69

>  <TPSAScore>
0.0

>  <MWScore>
0.0

>  <bpKaScore>
1.0

>  <logPScore>
1.0

>  <MPO_area>
28.5

>  <TPSA>
179.56

>  <logP>
2.58

$$$$

  Mrv1722703221715202D          

 58 62  0  0  0  0            999 V2000
    0.0000    0.0000    0.0000 O   0  0  0  0  0  0  0  0  0  0  0  0
    0.3638    0.7405    0.0000 C   0  0  0  0  0  0  0  0  0  0  0  0
    1.1562    0.5456    0.0000 O   0  0  0  0  0  0  0  0  0  0  0  0
   -0.2793    1.2731    0.0000 C   0  0  2  0  0  0  0  0  0  0  0  0
    1.9551    0.7210    0.0000 C   0  0  2  0  0  0  0  0  0  0  0  0
   -0.6301    2.0266    0.0000 C   0  0  0  0  0  0  0  0  0  0  0  0
   -0.9419    0.7795    0.0000 C   0  0  0  0  0  0  0  0  0  0  0  0
    2.6047    1.2277    0.0000 C   0  0  2  0  0  0  0  0  0  0  0  0
    2.2929   -0.0195    0.0000 C   0  0  0  0  0  0  0  0  0  0  0  0
   -1.4420    1.8642    0.0000 O   0  0  0  0  0  0  0  0  0  0  0  0
   -0.6236    2.8580    0.0000 C   0  0  2  0  0  0  0  0  0  0  0  0
    3.1828    0.6561    0.0000 O   0  0  0  0  0  0  0  0  0  0  0  0
    2.9685    1.9681    0.0000 C   0  0  1  0  0  0  0  0  0  0  0  0
    2.5463    0.4092    0.0000 C   0  0  0  0  0  0  0  0  0  0  0  0
    1.8122   -0.6885    0.0000 C   0  0  0  0  0  0  0  0  0  0  0  0
   -0.2598    3.5985    0.0000 C   0  0  2  0  0  0  0  0  0  0  0  0
   -1.4290    3.0659    0.0000 C   0  0  0  0  0  0  0  0  0  0  0  0
    3.9103    1.0393    0.0000 C   0  0  0  0  0  0  0  0  0  0  0  0
    3.7804    1.8513    0.0000 N   0  0  0  0  0  0  0  0  0  0  0  0
    2.9750    2.7996    0.0000 C   0  0  1  0  0  0  0  0  0  0  0  0
   -0.9029    4.1312    0.0000 O   0  0  0  0  0  0  0  0  0  0  0  0
    0.3897    4.1052    0.0000 C   0  0  1  0  0  0  0  0  0  0  0  0
    4.6378    0.6755    0.0000 O   0  0  0  0  0  0  0  0  0  0  0  0
    4.3520    2.4423    0.0000 C   0  0  0  0  0  0  0  0  0  0  0  0
    2.6242    3.5531    0.0000 C   0  0  0  0  0  0  0  0  0  0  0  0
    3.7739    2.9750    0.0000 C   0  0  0  0  0  0  0  0  0  0  0  0
   -0.7730    4.9496    0.0000 C   0  0  1  0  0  0  0  0  0  0  0  0
    0.5197    4.9236    0.0000 O   0  0  0  0  0  0  0  0  0  0  0  0
    1.1887    4.2806    0.0000 C   0  0  0  0  0  0  0  0  0  0  0  0
   -0.3248    4.5339    0.0000 C   0  0  0  0  0  0  0  0  0  0  0  0
    5.1445    2.2409    0.0000 C   0  0  0  0  0  0  0  0  0  0  0  0
    3.2738    4.0597    0.0000 O   0  0  0  0  0  0  0  0  0  0  0  0
    1.9812    4.0857    0.0000 C   0  0  2  0  0  0  0  0  0  0  0  0
   -0.0065    5.2419    0.0000 O   0  0  0  0  0  0  0  0  0  0  0  0
   -1.4160    5.4822    0.0000 C   0  0  1  0  0  0  0  0  0  0  0  0
    1.2861    5.2159    0.0000 C   0  0  0  0  0  0  0  0  0  0  0  0
    5.7161    2.8321    0.0000 C   0  0  0  0  0  0  0  0  0  0  0  0
    2.3449    4.8262    0.0000 C   0  0  0  0  0  0  0  0  0  0  0  0
    0.1234    6.0603    0.0000 C   0  0  2  0  0  0  0  0  0  0  0  0
   -2.1955    5.2029    0.0000 O   0  0  0  0  0  0  0  0  0  0  0  0
   -1.2861    6.3007    0.0000 C   0  0  1  0  0  0  0  0  0  0  0  0
    6.5086    2.6307    0.0000 C   0  0  0  0  0  0  0  0  0  0  0  0
   -0.5197    6.5930    0.0000 C   0  0  0  0  0  0  0  0  0  0  0  0
    0.8899    6.3527    0.0000 C   0  0  0  0  0  0  0  0  0  0  0  0
   -1.9292    6.8333    0.0000 N   0  0  0  0  0  0  0  0  0  0  0  0
    7.0802    3.2218    0.0000 N   0  0  0  0  0  0  0  0  0  0  0  0
   -1.7993    7.6518    0.0000 C   0  0  0  0  0  0  0  0  0  0  0  0
   -2.7087    6.5540    0.0000 C   0  0  0  0  0  0  0  0  0  0  0  0
    7.8921    3.1049    0.0000 C   0  0  0  0  0  0  0  0  0  0  0  0
    6.9438    4.0403    0.0000 C   0  0  0  0  0  0  0  0  0  0  0  0
    8.2559    3.8454    0.0000 N   0  0  0  0  0  0  0  0  0  0  0  0
    7.6712    4.4235    0.0000 C   0  0  0  0  0  0  0  0  0  0  0  0
    7.7882    5.2484    0.0000 C   0  0  0  0  0  0  0  0  0  0  0  0
    7.1386    5.7745    0.0000 C   0  0  0  0  0  0  0  0  0  0  0  0
    8.5482    5.5537    0.0000 C   0  0  0  0  0  0  0  0  0  0  0  0
    7.2555    6.5995    0.0000 N   0  0  0  0  0  0  0  0  0  0  0  0
    8.6651    6.3787    0.0000 C   0  0  0  0  0  0  0  0  0  0  0  0
    8.0155    6.9048    0.0000 C   0  0  0  0  0  0  0  0  0  0  0  0
  1  2  2  0  0  0  0
  2  3  1  0  0  0  0
  2  4  1  0  0  0  0
  3  5  1  0  0  0  0
  4  6  1  0  0  0  0
  4  7  1  1  0  0  0
  5  8  1  0  0  0  0
  5  9  1  6  0  0  0
  6 10  2  0  0  0  0
  6 11  1  0  0  0  0
  8 12  1  0  0  0  0
  8 13  1  0  0  0  0
  8 14  1  6  0  0  0
  9 15  1  0  0  0  0
 11 16  1  0  0  0  0
 11 17  1  1  0  0  0
 12 18  1  0  0  0  0
 13 19  1  6  0  0  0
 13 20  1  0  0  0  0
 16 21  1  6  0  0  0
 16 22  1  0  0  0  0
 18 23  2  0  0  0  0
 19 24  1  0  0  0  0
 20 25  1  0  0  0  0
 20 26  1  1  0  0  0
 27 21  1  6  0  0  0
 22 28  1  1  0  0  0
 22 29  1  0  0  0  0
 22 30  1  0  0  0  0
 24 31  1  0  0  0  0
 25 32  2  0  0  0  0
 25 33  1  0  0  0  0
 27 34  1  0  0  0  0
 27 35  1  0  0  0  0
 28 36  1  0  0  0  0
 31 37  1  0  0  0  0
 33 38  1  6  0  0  0
 34 39  1  0  0  0  0
 35 40  1  1  0  0  0
 35 41  1  0  0  0  0
 37 42  1  0  0  0  0
 39 43  1  0  0  0  0
 39 44  1  6  0  0  0
 41 45  1  6  0  0  0
 42 46  1  0  0  0  0
 45 47  1  0  0  0  0
 45 48  1  0  0  0  0
 46 49  1  0  0  0  0
 46 50  1  0  0  0  0
 49 51  2  0  0  0  0
 50 52  2  0  0  0  0
 52 53  1  0  0  0  0
 53 54  2  0  0  0  0
 53 55  1  0  0  0  0
 54 56  1  0  0  0  0
 55 57  2  0  0  0  0
 56 58  2  0  0  0  0
 18 19  1  0  0  0  0
 29 33  1  0  0  0  0
 41 43  1  0  0  0  0
 51 52  1  0  0  0  0
 57 58  1  0  0  0  0
M  END

>  <name>
Telithromycin

>  <ROTATABLE_BONDCOUNT>
11

>  <HBDScore>
0.8333333333333334

>  <dipole>
5.45

>  <logD>
4.89

>  <MPOScore>
1.8333333333333335

>  <logDScore>
0.0

>  <MW>
812.018

>  <charge_dist(7.4)>
0.63

>  <CNS>
FALSE

>  <ArRings>
2

>  <HBD>
1

>  <BALABAN_INDEX>
1.34

>  <bpKa>
7.66

>  <TPSAScore>
0.0

>  <MWScore>
0.0

>  <bpKaScore>
1.0

>  <logPScore>
0.0

>  <MPO_area>
13.89

>  <TPSA>
171.85

>  <logP>
5.15

$$$$

  Mrv1722703221715202D          

 19 20  0  0  0  0            999 V2000
    0.0000    0.0000    0.0000 P   0  0  0  0  0  0  0  0  0  0  0  0
   -0.3778    0.7492    0.0000 O   0  0  0  0  0  0  0  0  0  0  0  0
   -0.7492   -0.3648    0.0000 O   0  0  0  0  0  0  0  0  0  0  0  0
    0.7362    0.3778    0.0000 O   0  0  0  0  0  0  0  0  0  0  0  0
    0.3648   -0.7362    0.0000 C   0  0  0  0  0  0  0  0  0  0  0  0
    1.1858   -0.7753    0.0000 O   0  0  0  0  0  0  0  0  0  0  0  0
    1.5506   -1.5115    0.0000 C   0  0  2  0  0  0  0  0  0  0  0  0
    2.3715   -1.5506    0.0000 C   0  0  0  0  0  0  0  0  0  0  0  0
    1.0880   -2.1956    0.0000 C   0  0  0  0  0  0  0  0  0  0  0  0
    2.8210   -0.8535    0.0000 N   0  0  0  0  0  0  0  0  0  0  0  0
    3.6419   -0.8079    0.0000 C   0  0  0  0  0  0  0  0  0  0  0  0
    2.5213   -0.0717    0.0000 C   0  0  0  0  0  0  0  0  0  0  0  0
    4.2152   -1.3877    0.0000 N   0  0  0  0  0  0  0  0  0  0  0  0
    3.8569    0.0000    0.0000 C   0  0  0  0  0  0  0  0  0  0  0  0
    3.1598    0.4495    0.0000 N   0  0  0  0  0  0  0  0  0  0  0  0
    5.0101   -1.1727    0.0000 C   0  0  0  0  0  0  0  0  0  0  0  0
    4.6517    0.2150    0.0000 C   0  0  0  0  0  0  0  0  0  0  0  0
    5.2250   -0.3648    0.0000 N   0  0  0  0  0  0  0  0  0  0  0  0
    4.8667    1.0228    0.0000 N   0  0  0  0  0  0  0  0  0  0  0  0
  1  2  2  0  0  0  0
  1  3  1  0  0  0  0
  1  4  1  0  0  0  0
  1  5  1  0  0  0  0
  5  6  1  0  0  0  0
  7  6  1  6  0  0  0
  7  8  1  0  0  0  0
  7  9  1  0  0  0  0
  8 10  1  0  0  0  0
 10 11  1  0  0  0  0
 10 12  1  0  0  0  0
 11 13  2  0  0  0  0
 11 14  1  0  0  0  0
 12 15  2  0  0  0  0
 13 16  1  0  0  0  0
 14 17  2  0  0  0  0
 16 18  2  0  0  0  0
 17 19  1  0  0  0  0
 14 15  1  0  0  0  0
 17 18  1  0  0  0  0
M  END

>  <name>
Tenofovir

>  <ROTATABLE_BONDCOUNT>
5

>  <HBDScore>
0.16666666666666674

>  <dipole>
2.52

>  <logD>
-3.55

>  <MPOScore>
4.166666666666667

>  <logDScore>
1.0

>  <MW>
287.216

>  <charge_dist(7.4)>
-1.38

>  <CNS>
FALSE

>  <ArRings>
2

>  <HBD>
3

>  <BALABAN_INDEX>
1.62

>  <bpKa>
1.02

>  <TPSAScore>
0.0

>  <MWScore>
1.0

>  <bpKaScore>
1.0

>  <logPScore>
1.0

>  <MPO_area>
52.78

>  <TPSA>
136.38

>  <logP>
-1.74

$$$$

  Mrv1722703221715202D          

 22 25  0  0  0  0            999 V2000
    0.0000    0.0000    0.0000 O   0  0  0  0  0  0  0  0  0  0  0  0
    0.8200    0.0911    0.0000 C   0  0  0  0  0  0  0  0  0  0  0  0
    1.3015   -0.5727    0.0000 C   0  0  0  0  0  0  0  0  0  0  0  0
    1.1518    0.8590    0.0000 C   0  0  0  0  0  0  0  0  0  0  0  0
    2.1214   -0.4815    0.0000 C   0  0  0  0  0  0  0  0  0  0  0  0
    1.9718    0.9501    0.0000 C   0  0  0  0  0  0  0  0  0  0  0  0
    2.4533    0.2864    0.0000 C   0  0  0  0  0  0  0  0  0  0  0  0
    2.6030   -1.1453    0.0000 C   0  0  0  0  0  0  0  0  0  0  0  0
    3.2732    0.3774    0.0000 C   0  0  0  0  0  0  0  0  0  0  0  0
    2.7852    1.0542    0.0000 C   0  0  0  0  0  0  0  0  0  0  0  0
    3.4229   -1.0542    0.0000 C   0  0  0  0  0  0  0  0  0  0  0  0
    3.7548   -0.2864    0.0000 C   0  0  0  0  0  0  0  0  0  0  0  0
    3.6051    1.1453    0.0000 C   0  0  0  0  0  0  0  0  0  0  0  0
    4.5747   -0.1952    0.0000 C   0  0  0  0  0  0  0  0  0  0  0  0
    4.4251    1.2364    0.0000 C   0  0  0  0  0  0  0  0  0  0  0  0
    4.9066    0.5727    0.0000 C   0  0  0  0  0  0  0  0  0  0  0  0
    5.0563   -0.8590    0.0000 C   0  0  0  0  0  0  0  0  0  0  0  0
    5.7265    0.6638    0.0000 O   0  0  0  0  0  0  0  0  0  0  0  0
    5.2385    1.3405    0.0000 C   0  0  0  0  0  0  0  0  0  0  0  0
    5.8762   -0.7679    0.0000 C   0  0  0  0  0  0  0  0  0  0  0  0
    6.2081    0.0000    0.0000 C   0  0  0  0  0  0  0  0  0  0  0  0
    7.0280    0.0911    0.0000 O   0  0  0  0  0  0  0  0  0  0  0  0
  1  2  2  0  0  0  0
  2  3  1  0  0  0  0
  2  4  1  0  0  0  0
  3  5  2  0  0  0  0
  4  6  2  0  0  0  0
  5  7  1  0  0  0  0
  5  8  1  0  0  0  0
  7  9  1  0  0  0  0
  7 10  1  0  0  0  0
  8 11  1  0  0  0  0
  9 12  1  0  0  0  0
  9 13  1  0  0  0  0
 12 14  1  0  0  0  0
 13 15  1  0  0  0  0
 14 16  1  0  0  0  0
 14 17  1  0  0  0  0
 16 18  1  0  0  0  0
 16 19  1  0  0  0  0
 17 20  1  0  0  0  0
 18 21  1  0  0  0  0
 21 22  2  0  0  0  0
  6  7  1  0  0  0  0
 11 12  1  0  0  0  0
 15 16  1  0  0  0  0
 20 21  1  0  0  0  0
M  END

>  <name>
Testolactone

>  <ROTATABLE_BONDCOUNT>
0

>  <HBDScore>
1.0

>  <dipole>
3.24

>  <logD>
3.23

>  <MPOScore>
5.27

>  <logDScore>
0.385

>  <MW>
300.398

>  <charge_dist(7.4)>
-0.00

>  <CNS>
FALSE

>  <ArRings>
0

>  <HBD>
0

>  <BALABAN_INDEX>
1.60

>  <bpKa>
-5

>  <TPSAScore>
1.0

>  <MWScore>
1.0

>  <bpKaScore>
1.0

>  <logPScore>
0.885

>  <MPO_area>
76.85

>  <TPSA>
43.37

>  <logP>
3.23

$$$$

  Mrv1722703221715202D          

 14 16  0  0  0  0            999 V2000
    0.0000    0.0000    0.0000 S   0  0  0  0  0  0  0  0  0  0  0  0
   -0.8249    0.0064    0.0000 C   0  0  0  0  0  0  0  0  0  0  0  0
    0.2449    0.7863    0.0000 C   0  0  0  0  0  0  0  0  0  0  0  0
   -1.0828    0.7927    0.0000 N   0  0  0  0  0  0  0  0  0  0  0  0
   -0.4254    1.2761    0.0000 C   0  0  0  0  0  0  0  0  0  0  0  0
   -0.4318    2.1011    0.0000 C   0  0  0  0  0  0  0  0  0  0  0  0
   -1.1021    2.5909    0.0000 N   0  0  0  0  0  0  0  0  0  0  0  0
    0.2256    2.5909    0.0000 N   0  0  0  0  0  0  0  0  0  0  0  0
   -0.8572    3.3772    0.0000 C   0  0  0  0  0  0  0  0  0  0  0  0
   -0.0322    3.3772    0.0000 C   0  0  0  0  0  0  0  0  0  0  0  0
   -1.2697    4.0926    0.0000 C   0  0  0  0  0  0  0  0  0  0  0  0
    0.3674    4.0926    0.0000 C   0  0  0  0  0  0  0  0  0  0  0  0
   -0.8701    4.8080    0.0000 C   0  0  0  0  0  0  0  0  0  0  0  0
   -0.0451    4.8080    0.0000 C   0  0  0  0  0  0  0  0  0  0  0  0
  1  2  1  0  0  0  0
  1  3  1  0  0  0  0
  2  4  2  0  0  0  0
  3  5  2  0  0  0  0
  5  6  1  0  0  0  0
  6  7  2  0  0  0  0
  6  8  1  0  0  0  0
  7  9  1  0  0  0  0
  8 10  1  0  0  0  0
  9 11  2  0  0  0  0
 10 12  2  0  0  0  0
 11 13  1  0  0  0  0
 12 14  1  0  0  0  0
  4  5  1  0  0  0  0
  9 10  1  0  0  0  0
 13 14  2  0  0  0  0
M  END

>  <name>
Thiabendazole

>  <ROTATABLE_BONDCOUNT>
1

>  <HBDScore>
0.8333333333333334

>  <dipole>
2.87

>  <logD>
2.33

>  <MPOScore>
5.668333333333333

>  <logDScore>
0.835

>  <MW>
201.25

>  <charge_dist(7.4)>
-0.00

>  <CNS>
FALSE

>  <ArRings>
3

>  <HBD>
1

>  <BALABAN_INDEX>
1.61

>  <bpKa>
4.08

>  <TPSAScore>
1.0

>  <MWScore>
1.0

>  <bpKaScore>
1.0

>  <logPScore>
1.0

>  <MPO_area>
89.4

>  <TPSA>
41.57

>  <logP>
2.33

$$$$

  Mrv1722703221715202D          

 11 12  0  0  0  0            999 V2000
    0.0000    0.0000    0.0000 S   0  0  0  0  0  0  0  0  0  0  0  0
    0.1346    0.8139    0.0000 C   0  0  0  0  0  0  0  0  0  0  0  0
    0.8972    1.1023    0.0000 N   0  0  0  0  0  0  0  0  0  0  0  0
   -0.4999    1.3459    0.0000 C   0  0  0  0  0  0  0  0  0  0  0  0
    1.0318    1.9163    0.0000 C   0  0  0  0  0  0  0  0  0  0  0  0
   -1.3202    1.2369    0.0000 N   0  0  0  0  0  2  0  0  0  0  0  0
   -0.3653    2.1598    0.0000 C   0  0  0  0  0  0  0  0  0  0  0  0
    0.3973    2.4482    0.0000 N   0  0  0  0  0  0  0  0  0  0  0  0
    1.7945    2.2047    0.0000 N   0  0  0  0  0  0  0  0  0  0  0  0
   -1.6920    1.9803    0.0000 C   0  0  0  0  0  0  0  0  0  0  0  0
   -1.0959    2.5507    0.0000 N   0  0  0  0  0  0  0  0  0  0  0  0
  1  2  2  0  0  0  0
  2  3  1  0  0  0  0
  2  4  1  0  0  0  0
  3  5  2  0  0  0  0
  4  6  1  0  0  0  0
  4  7  2  0  0  0  0
  5  8  1  0  0  0  0
  5  9  1  0  0  0  0
  6 10  1  0  0  0  0
  7 11  1  0  0  0  0
  7  8  1  0  0  0  0
 10 11  2  0  0  0  0
M  RAD  1   6   2
M  END

>  <name>
Thioguanine

>  <ROTATABLE_BONDCOUNT>
0

>  <HBDScore>
0.5

>  <logD>
-0.02

>  <MPOScore>
5.5

>  <logDScore>
1.0

>  <MW>
166.18

>  <charge_dist(7.4)>
-0.00

>  <CNS>
FALSE

>  <ArRings>
2

>  <HBD>
2

>  <BALABAN_INDEX>
2.04

>  <bpKa>
-0.18

>  <TPSAScore>
1.0

>  <MWScore>
1.0

>  <bpKaScore>
1.0

>  <logPScore>
1.0

>  <MPO_area>
83.33

>  <TPSA>
76.19

>  <logP>
-0.02

$$$$

  Mrv1722703221715202D          

 36 40  0  0  0  0            999 V2000
    0.0000    0.0000    0.0000 S   0  0  0  0  0  0  0  0  0  0  0  0
    0.2331   -0.7835    0.0000 C   0  0  0  0  0  0  0  0  0  0  0  0
    0.5569    0.6087    0.0000 C   0  0  0  0  0  0  0  0  0  0  0  0
   -0.3367   -1.3792    0.0000 N   0  0  0  0  0  0  0  0  0  0  0  0
    1.0296   -0.9648    0.0000 N   0  0  0  0  0  0  0  0  0  0  0  0
    0.3108    1.4052    0.0000 C   0  0  0  0  0  0  0  0  0  0  0  0
   -0.1036   -2.1627    0.0000 C   0  0  0  0  0  0  0  0  0  0  0  0
    1.2627   -1.7483    0.0000 C   0  0  0  0  0  0  0  0  0  0  0  0
    0.8677    2.0138    0.0000 C   0  0  0  0  0  0  0  0  0  0  0  0
   -0.6734   -2.7585    0.0000 N   0  0  0  0  0  0  0  0  0  0  0  0
    0.6929   -2.3440    0.0000 C   0  0  0  0  0  0  0  0  0  0  0  0
    2.0073   -2.0915    0.0000 N   0  0  0  0  0  0  0  0  0  0  0  0
   -1.4828   -2.5642    0.0000 C   0  0  2  0  0  0  0  0  0  0  0  0
    1.0878   -3.0563    0.0000 N   0  0  0  0  0  0  0  0  0  0  0  0
    1.9037   -2.9074    0.0000 N   0  0  0  0  0  0  0  0  0  0  0  0
    2.7196   -1.6836    0.0000 C   0  0  2  0  0  0  0  0  0  0  0  0
   -2.0915   -1.9944    0.0000 C   0  0  2  0  0  0  0  0  0  0  0  0
   -2.2793   -2.7973    0.0000 C   0  0  0  0  0  0  0  0  0  0  0  0
    3.4643   -2.0268    0.0000 C   0  0  1  0  0  0  0  0  0  0  0  0
    2.8102   -0.8547    0.0000 C   0  0  0  0  0  0  0  0  0  0  0  0
   -2.3376   -1.1979    0.0000 C   0  0  0  0  0  0  0  0  0  0  0  0
    3.6132   -2.8297    0.0000 O   0  0  0  0  0  0  0  0  0  0  0  0
    4.0212   -1.4181    0.0000 C   0  0  2  0  0  0  0  0  0  0  0  0
    3.6132   -0.6929    0.0000 C   0  0  2  0  0  0  0  0  0  0  0  0
   -1.7807   -0.5893    0.0000 C   0  0  0  0  0  0  0  0  0  0  0  0
   -3.1470   -1.0036    0.0000 C   0  0  0  0  0  0  0  0  0  0  0  0
    4.8370   -1.5088    0.0000 O   0  0  0  0  0  0  0  0  0  0  0  0
    3.9564    0.0648    0.0000 O   0  0  0  0  0  0  0  0  0  0  0  0
   -2.0268    0.2072    0.0000 C   0  0  0  0  0  0  0  0  0  0  0  0
   -3.3931   -0.2072    0.0000 C   0  0  0  0  0  0  0  0  0  0  0  0
    4.7723    0.1425    0.0000 C   0  0  0  0  0  0  0  0  0  0  0  0
   -1.4699    0.8159    0.0000 F   0  0  0  0  0  0  0  0  0  0  0  0
   -2.8362    0.4015    0.0000 C   0  0  0  0  0  0  0  0  0  0  0  0
    5.1155    0.9001    0.0000 C   0  0  0  0  0  0  0  0  0  0  0  0
   -3.0822    1.1979    0.0000 F   0  0  0  0  0  0  0  0  0  0  0  0
    5.9313    0.9778    0.0000 O   0  0  0  0  0  0  0  0  0  0  0  0
  1  2  1  0  0  0  0
  1  3  1  0  0  0  0
  2  4  2  0  0  0  0
  2  5  1  0  0  0  0
  3  6  1  0  0  0  0
  4  7  1  0  0  0  0
  5  8  2  0  0  0  0
  6  9  1  0  0  0  0
  7 10  1  0  0  0  0
  7 11  2  0  0  0  0
  8 12  1  0  0  0  0
 13 10  1  1  0  0  0
 11 14  1  0  0  0  0
 12 15  1  0  0  0  0
 16 12  1  1  0  0  0
 13 17  1  0  0  0  0
 13 18  1  0  0  0  0
 16 19  1  0  0  0  0
 16 20  1  0  0  0  0
 17 21  1  6  0  0  0
 19 22  1  6  0  0  0
 19 23  1  0  0  0  0
 20 24  1  0  0  0  0
 21 25  2  0  0  0  0
 21 26  1  0  0  0  0
 23 27  1  6  0  0  0
 24 28  1  1  0  0  0
 25 29  1  0  0  0  0
 26 30  2  0  0  0  0
 28 31  1  0  0  0  0
 29 32  1  0  0  0  0
 29 33  2  0  0  0  0
 31 34  1  0  0  0  0
 33 35  1  0  0  0  0
 34 36  1  0  0  0  0
  8 11  1  0  0  0  0
 14 15  2  0  0  0  0
 17 18  1  0  0  0  0
 23 24  1  0  0  0  0
 30 33  1  0  0  0  0
M  END

>  <name>
Ticagrelor

>  <ROTATABLE_BONDCOUNT>
10

>  <HBDScore>
0.0

>  <dipole>
4.94

>  <logD>
2.28

>  <MPOScore>
2.8600000000000003

>  <logDScore>
0.8600000000000001

>  <MW>
522.57

>  <charge_dist(7.4)>
-0.00

>  <CNS>
FALSE

>  <ArRings>
3

>  <HBD>
4

>  <BALABAN_INDEX>
1.11

>  <bpKa>
0.11

>  <TPSAScore>
0.0

>  <MWScore>
0.0

>  <bpKaScore>
1.0

>  <logPScore>
1.0

>  <MPO_area>
31.0

>  <TPSA>
138.44

>  <logP>
2.28

$$$$

  Mrv1722703221715202D          

 17 19  0  0  0  0            999 V2000
    0.0000    0.0000    0.0000 Cl  0  0  0  0  0  0  0  0  0  0  0  0
   -0.0645   -0.8124    0.0000 C   0  0  0  0  0  0  0  0  0  0  0  0
   -0.8124   -1.1606    0.0000 C   0  0  0  0  0  0  0  0  0  0  0  0
    0.6061   -1.2702    0.0000 C   0  0  0  0  0  0  0  0  0  0  0  0
   -0.8769   -1.9730    0.0000 C   0  0  0  0  0  0  0  0  0  0  0  0
   -1.4959   -0.6899    0.0000 C   0  0  0  0  0  0  0  0  0  0  0  0
    0.5416   -2.0826    0.0000 C   0  0  0  0  0  0  0  0  0  0  0  0
   -0.2063   -2.4308    0.0000 C   0  0  0  0  0  0  0  0  0  0  0  0
   -2.2438   -1.0381    0.0000 N   0  0  0  0  0  0  0  0  0  0  0  0
   -2.9273   -0.5674    0.0000 C   0  0  0  0  0  0  0  0  0  0  0  0
   -2.3083   -1.8505    0.0000 C   0  0  0  0  0  0  0  0  0  0  0  0
   -3.6753   -0.9156    0.0000 C   0  0  0  0  0  0  0  0  0  0  0  0
   -3.0563   -2.1987    0.0000 C   0  0  0  0  0  0  0  0  0  0  0  0
   -3.7397   -1.7280    0.0000 C   0  0  0  0  0  0  0  0  0  0  0  0
   -4.4425   -0.5996    0.0000 C   0  0  0  0  0  0  0  0  0  0  0  0
   -4.5457   -1.9150    0.0000 S   0  0  0  0  0  0  0  0  0  0  0  0
   -4.9777   -1.2187    0.0000 C   0  0  0  0  0  0  0  0  0  0  0  0
  1  2  1  0  0  0  0
  2  3  2  0  0  0  0
  2  4  1  0  0  0  0
  3  5  1  0  0  0  0
  3  6  1  0  0  0  0
  4  7  2  0  0  0  0
  5  8  2  0  0  0  0
  6  9  1  0  0  0  0
  9 10  1  0  0  0  0
  9 11  1  0  0  0  0
 10 12  1  0  0  0  0
 11 13  1  0  0  0  0
 12 14  2  0  0  0  0
 12 15  1  0  0  0  0
 14 16  1  0  0  0  0
 15 17  2  0  0  0  0
  7  8  1  0  0  0  0
 13 14  1  0  0  0  0
 16 17  1  0  0  0  0
M  END

>  <name>
Ticlopidine

>  <ROTATABLE_BONDCOUNT>
2

>  <HBDScore>
1.0

>  <dipole>
2.31

>  <logD>
4.07

>  <MPOScore>
3.4

>  <logDScore>
0.0

>  <MW>
263.78

>  <charge_dist(7.4)>
0.26

>  <CNS>
FALSE

>  <ArRings>
2

>  <HBD>
0

>  <BALABAN_INDEX>
1.27

>  <bpKa>
6.94

>  <TPSAScore>
0.0

>  <MWScore>
1.0

>  <bpKaScore>
1.0

>  <logPScore>
0.3999999999999999

>  <MPO_area>
40.0

>  <TPSA>
3.24

>  <logP>
4.20

$$$$

  Mrv1722703221715202D          

 17 17  0  0  0  0            999 V2000
    0.0000    0.0000    0.0000 Cl  0  0  0  0  0  0  0  0  0  0  0  0
    0.7870    0.2475    0.0000 C   0  0  0  0  0  0  0  0  0  0  0  0
    1.3836   -0.3110    0.0000 C   0  0  0  0  0  0  0  0  0  0  0  0
    0.9647    1.0600    0.0000 C   0  0  0  0  0  0  0  0  0  0  0  0
    2.1707   -0.0635    0.0000 C   0  0  0  0  0  0  0  0  0  0  0  0
    1.7517    1.3074    0.0000 C   0  0  0  0  0  0  0  0  0  0  0  0
    2.3484    0.7490    0.0000 C   0  0  0  0  0  0  0  0  0  0  0  0
    3.1354    0.9964    0.0000 S   0  0  0  0  0  0  0  0  0  0  0  0
    3.7320    0.4380    0.0000 C   0  0  0  0  0  0  0  0  0  0  0  0
    4.5190    0.6854    0.0000 P   0  0  0  0  0  0  0  0  0  0  0  0
    3.5415   -0.3617    0.0000 P   0  0  0  0  0  0  0  0  0  0  0  0
    5.3060    0.9330    0.0000 O   0  0  0  0  0  0  0  0  0  0  0  0
    4.7538   -0.1016    0.0000 O   0  0  0  0  0  0  0  0  0  0  0  0
    4.2714    1.4852    0.0000 O   0  0  0  0  0  0  0  0  0  0  0  0
    3.3511   -1.1615    0.0000 O   0  0  0  0  0  0  0  0  0  0  0  0
    4.3412   -0.5395    0.0000 O   0  0  0  0  0  0  0  0  0  0  0  0
    2.7291   -0.1714    0.0000 O   0  0  0  0  0  0  0  0  0  0  0  0
  1  2  1  0  0  0  0
  2  3  2  0  0  0  0
  2  4  1  0  0  0  0
  3  5  1  0  0  0  0
  4  6  2  0  0  0  0
  5  7  2  0  0  0  0
  7  8  1  0  0  0  0
  8  9  1  0  0  0  0
  9 10  1  0  0  0  0
  9 11  1  0  0  0  0
 10 12  2  0  0  0  0
 10 13  1  0  0  0  0
 10 14  1  0  0  0  0
 11 15  2  0  0  0  0
 11 16  1  0  0  0  0
 11 17  1  0  0  0  0
  6  7  1  0  0  0  0
M  END

>  <name>
Tiludronate

>  <ROTATABLE_BONDCOUNT>
4

>  <HBDScore>
0.0

>  <dipole>
5.58

>  <logD>
-3.47

>  <MPOScore>
4.164666666666666

>  <logDScore>
1.0

>  <MW>
318.60

>  <charge_dist(7.4)>
-2.77

>  <CNS>
FALSE

>  <ArRings>
1

>  <HBD>
4

>  <BALABAN_INDEX>
2.46

>  <bpKa>
0.0

>  <TPSAScore>
0.16466666666666663

>  <MWScore>
1.0

>  <bpKaScore>
1.0

>  <logPScore>
1.0

>  <MPO_area>
52.74

>  <TPSA>
115.06

>  <logP>
1.32

$$$$

  Mrv1722703221715202D          

 16 16  0  0  0  0            999 V2000
    0.0000    0.0000    0.0000 S   0  0  0  0  0  0  0  0  0  0  0  0
    0.3112   -0.7586    0.0000 O   0  0  0  0  0  0  0  0  0  0  0  0
   -0.3242    0.7716    0.0000 O   0  0  0  0  0  0  0  0  0  0  0  0
    0.7586    0.3242    0.0000 C   0  0  0  0  0  0  0  0  0  0  0  0
   -0.7716   -0.3112    0.0000 C   0  0  0  0  0  0  0  0  0  0  0  0
    1.4070   -0.1686    0.0000 C   0  0  0  0  0  0  0  0  0  0  0  0
   -0.8818   -1.1218    0.0000 C   0  0  0  0  0  0  0  0  0  0  0  0
    2.1657    0.1556    0.0000 N   0  0  0  0  0  0  0  0  0  0  0  0
    2.8659   -0.2658    0.0000 C   0  0  0  0  0  0  0  0  0  0  0  0
    2.3472    0.9661    0.0000 C   0  0  0  0  0  0  0  0  0  0  0  0
    2.9243   -1.0828    0.0000 N   0  3  0  0  0  0  0  0  0  0  0  0
    3.4884    0.2788    0.0000 C   0  0  0  0  0  0  0  0  0  0  0  0
    3.1642    1.0374    0.0000 N   0  0  0  0  0  0  0  0  0  0  0  0
    1.8025    1.6016    0.0000 C   0  0  0  0  0  0  0  0  0  0  0  0
    3.6635   -1.4330    0.0000 O   0  0  0  0  0  0  0  0  0  0  0  0
    2.2370   -1.5432    0.0000 O   0  5  0  0  0  0  0  0  0  0  0  0
  1  2  2  0  0  0  0
  1  3  2  0  0  0  0
  1  4  1  0  0  0  0
  1  5  1  0  0  0  0
  4  6  1  0  0  0  0
  5  7  1  0  0  0  0
  6  8  1  0  0  0  0
  8  9  1  0  0  0  0
  8 10  1  0  0  0  0
  9 11  1  0  0  0  0
  9 12  2  0  0  0  0
 10 13  2  0  0  0  0
 10 14  1  0  0  0  0
 11 15  2  0  0  0  0
 11 16  1  0  0  0  0
 12 13  1  0  0  0  0
M  CHG  2  11   1  16  -1
M  END

>  <name>
Tinidazole

>  <ROTATABLE_BONDCOUNT>
5

>  <HBDScore>
1.0

>  <dipole>
8.32

>  <logD>
-0.58

>  <MPOScore>
5.83

>  <logDScore>
1.0

>  <MW>
247.27

>  <charge_dist(7.4)>
0.00

>  <CNS>
FALSE

>  <ArRings>
1

>  <HBD>
0

>  <BALABAN_INDEX>
2.50

>  <bpKa>
2.58

>  <TPSAScore>
0.8300000000000002

>  <MWScore>
1.0

>  <bpKaScore>
1.0

>  <logPScore>
1.0

>  <MPO_area>
94.33

>  <TPSA>
95.10

>  <logP>
-0.58

$$$$

  Mrv1722703221715202D          

 10  9  0  0  0  0            999 V2000
    0.0000    0.0000    0.0000 S   0  0  0  0  0  0  0  0  0  0  0  0
   -0.0521   -0.8212    0.0000 C   0  0  2  0  0  0  0  0  0  0  0  0
    0.6387   -1.2643    0.0000 C   0  0  0  0  0  0  0  0  0  0  0  0
   -0.7951   -1.1926    0.0000 C   0  0  0  0  0  0  0  0  0  0  0  0
    0.5865   -2.0855    0.0000 O   0  0  0  0  0  0  0  0  0  0  0  0
    1.3686   -0.8798    0.0000 N   0  0  0  0  0  0  0  0  0  0  0  0
    2.0594   -1.3230    0.0000 C   0  0  0  0  0  0  0  0  0  0  0  0
    2.7894   -0.9385    0.0000 C   0  0  0  0  0  0  0  0  0  0  0  0
    2.8285   -0.1043    0.0000 O   0  0  0  0  0  0  0  0  0  0  0  0
    3.4802   -1.3816    0.0000 O   0  0  0  0  0  0  0  0  0  0  0  0
  2  1  1  6  0  0  0
  2  3  1  0  0  0  0
  2  4  1  0  0  0  0
  3  5  2  0  0  0  0
  3  6  1  0  0  0  0
  6  7  1  0  0  0  0
  7  8  1  0  0  0  0
  8  9  2  0  0  0  0
  8 10  1  0  0  0  0
M  END

>  <name>
Tiopronin

>  <ROTATABLE_BONDCOUNT>
3

>  <HBDScore>
0.16666666666666674

>  <dipole>
3.65

>  <logD>
-3.77

>  <MPOScore>
5.166666666666667

>  <logDScore>
1.0

>  <MW>
163.19

>  <charge_dist(7.4)>
-1.01

>  <CNS>
FALSE

>  <ArRings>
0

>  <HBD>
3

>  <BALABAN_INDEX>
3.30

>  <bpKa>
-4.16

>  <TPSAScore>
1.0

>  <MWScore>
1.0

>  <bpKaScore>
1.0

>  <logPScore>
1.0

>  <MPO_area>
72.22

>  <TPSA>
66.40

>  <logP>
-0.53

$$$$

  Mrv1722703221715202D          

 42 45  0  0  0  0            999 V2000
    0.0000    0.0000    0.0000 S   0  0  0  0  0  0  0  0  0  0  0  0
    0.1618   -0.7961    0.0000 O   0  0  0  0  0  0  0  0  0  0  0  0
   -0.1747    0.8090    0.0000 O   0  0  0  0  0  0  0  0  0  0  0  0
   -0.8090   -0.1618    0.0000 N   0  0  0  0  0  0  0  0  0  0  0  0
    0.7961    0.1747    0.0000 C   0  0  0  0  0  0  0  0  0  0  0  0
   -1.0679   -0.9384    0.0000 C   0  0  0  0  0  0  0  0  0  0  0  0
    1.0420    0.9643    0.0000 N   0  0  0  0  0  0  0  0  0  0  0  0
    1.3397   -0.4336    0.0000 C   0  0  0  0  0  0  0  0  0  0  0  0
   -1.8768   -1.1002    0.0000 C   0  0  0  0  0  0  0  0  0  0  0  0
   -0.5242   -1.5467    0.0000 C   0  0  0  0  0  0  0  0  0  0  0  0
    1.8380    1.1390    0.0000 C   0  0  0  0  0  0  0  0  0  0  0  0
    2.1357   -0.2589    0.0000 C   0  0  0  0  0  0  0  0  0  0  0  0
   -2.1357   -1.8768    0.0000 C   0  0  0  0  0  0  0  0  0  0  0  0
   -0.7831   -2.3234    0.0000 C   0  0  0  0  0  0  0  0  0  0  0  0
    2.3816    0.5307    0.0000 C   0  0  0  0  0  0  0  0  0  0  0  0
   -1.5921   -2.4852    0.0000 C   0  0  0  0  0  0  0  0  0  0  0  0
   -2.9447   -2.0386    0.0000 C   0  0  1  0  0  0  0  0  0  0  0  0
    3.1776    0.7054    0.0000 C   0  0  0  0  0  0  0  0  0  0  0  0
   -3.5012   -1.4173    0.0000 C   0  0  0  0  0  0  0  0  0  0  0  0
   -3.2035   -2.8153    0.0000 C   0  0  0  0  0  0  0  0  0  0  0  0
    3.9737    0.8802    0.0000 F   0  0  0  0  0  0  0  0  0  0  0  0
    3.3394   -0.0906    0.0000 F   0  0  0  0  0  0  0  0  0  0  0  0
    3.0029    1.5144    0.0000 F   0  0  0  0  0  0  0  0  0  0  0  0
   -3.2553   -0.6278    0.0000 C   0  0  0  0  0  0  0  0  0  0  0  0
   -4.3103   -1.5791    0.0000 C   0  0  0  0  0  0  0  0  0  0  0  0
   -2.6599   -3.4236    0.0000 C   0  0  0  0  0  0  0  0  0  0  0  0
   -2.4593   -0.4530    0.0000 O   0  0  0  0  0  0  0  0  0  0  0  0
   -3.8119   -0.0065    0.0000 O   0  0  0  0  0  0  0  0  0  0  0  0
   -4.5691   -2.3557    0.0000 O   0  0  0  0  0  0  0  0  0  0  0  0
   -4.8668   -0.9578    0.0000 C   0  0  0  0  0  0  0  0  0  0  0  0
   -4.6209   -0.1683    0.0000 C   0  0  2  0  0  0  0  0  0  0  0  0
   -4.6532    0.6602    0.0000 C   0  0  0  0  0  0  0  0  0  0  0  0
   -5.4428   -0.0453    0.0000 C   0  0  0  0  0  0  0  0  0  0  0  0
   -3.9608    1.1002    0.0000 C   0  0  0  0  0  0  0  0  0  0  0  0
   -5.7535    0.7248    0.0000 C   0  0  0  0  0  0  0  0  0  0  0  0
   -3.9931    1.9286    0.0000 C   0  0  0  0  0  0  0  0  0  0  0  0
   -6.5754    0.8478    0.0000 C   0  0  0  0  0  0  0  0  0  0  0  0
   -3.3007    2.3687    0.0000 C   0  0  0  0  0  0  0  0  0  0  0  0
   -4.7244    2.3234    0.0000 C   0  0  0  0  0  0  0  0  0  0  0  0
   -3.3330    3.1971    0.0000 C   0  0  0  0  0  0  0  0  0  0  0  0
   -4.7568    3.1518    0.0000 C   0  0  0  0  0  0  0  0  0  0  0  0
   -4.0643    3.5919    0.0000 C   0  0  0  0  0  0  0  0  0  0  0  0
  1  2  2  0  0  0  0
  1  3  2  0  0  0  0
  1  4  1  0  0  0  0
  1  5  1  0  0  0  0
  4  6  1  0  0  0  0
  5  7  2  0  0  0  0
  5  8  1  0  0  0  0
  6  9  2  0  0  0  0
  6 10  1  0  0  0  0
  7 11  1  0  0  0  0
  8 12  2  0  0  0  0
  9 13  1  0  0  0  0
 10 14  2  0  0  0  0
 11 15  2  0  0  0  0
 13 16  2  0  0  0  0
 13 17  1  0  0  0  0
 15 18  1  0  0  0  0
 17 19  1  0  0  0  0
 17 20  1  6  0  0  0
 18 21  1  0  0  0  0
 18 22  1  0  0  0  0
 18 23  1  0  0  0  0
 19 24  1  0  0  0  0
 19 25  2  0  0  0  0
 20 26  1  0  0  0  0
 24 27  2  0  0  0  0
 24 28  1  0  0  0  0
 25 29  1  0  0  0  0
 25 30  1  0  0  0  0
 28 31  1  0  0  0  0
 31 32  1  6  0  0  0
 31 33  1  0  0  0  0
 32 34  1  0  0  0  0
 33 35  1  0  0  0  0
 34 36  1  0  0  0  0
 35 37  1  0  0  0  0
 36 38  2  0  0  0  0
 36 39  1  0  0  0  0
 38 40  1  0  0  0  0
 39 41  2  0  0  0  0
 40 42  2  0  0  0  0
 12 15  1  0  0  0  0
 14 16  1  0  0  0  0
 30 31  1  0  0  0  0
 41 42  1  0  0  0  0
M  END

>  <name>
Tipranavir

>  <ROTATABLE_BONDCOUNT>
11

>  <HBDScore>
0.5

>  <dipole>
8.82

>  <logD>
3.45

>  <MPOScore>
2.255333333333333

>  <logDScore>
0.2749999999999999

>  <MW>
602.67

>  <charge_dist(7.4)>
-1.96

>  <CNS>
FALSE

>  <ArRings>
3

>  <HBD>
2

>  <BALABAN_INDEX>
1.35

>  <bpKa>
-3.31

>  <TPSAScore>
0.4803333333333333

>  <MWScore>
0.0

>  <bpKaScore>
1.0

>  <logPScore>
0.0

>  <MPO_area>
14.54

>  <TPSA>
105.59

>  <logP>
7.14

$$$$

  Mrv1722703221715202D          

 23 25  0  0  0  0            999 V2000
    0.0000    0.0000    0.0000 O   0  0  0  0  0  0  0  0  0  0  0  0
    0.6504    0.5138    0.0000 C   0  0  0  0  0  0  0  0  0  0  0  0
    1.4113    0.2081    0.0000 N   0  0  0  0  0  0  0  0  0  0  0  0
    0.5333    1.3398    0.0000 C   0  0  0  0  0  0  0  0  0  0  0  0
    2.0617    0.7219    0.0000 C   0  0  0  0  0  0  0  0  0  0  0  0
    1.5153   -0.6049    0.0000 C   0  0  0  0  0  0  0  0  0  0  0  0
   -0.2407    1.6584    0.0000 C   0  0  0  0  0  0  0  0  0  0  0  0
    2.8226    0.4162    0.0000 C   0  0  0  0  0  0  0  0  0  0  0  0
    2.2763   -0.9105    0.0000 C   0  0  0  0  0  0  0  0  0  0  0  0
   -1.0146    1.9771    0.0000 N   0  0  0  0  0  0  0  0  0  0  0  0
    3.4730    0.9300    0.0000 N   0  0  0  0  0  0  0  0  0  0  0  0
    2.9266   -0.3967    0.0000 C   0  0  0  0  0  0  0  0  0  0  0  0
    4.2339    0.6244    0.0000 C   0  0  0  0  0  0  0  0  0  0  0  0
    3.3559    1.7560    0.0000 C   0  0  0  0  0  0  0  0  0  0  0  0
    3.6876   -0.7024    0.0000 C   0  0  0  0  0  0  0  0  0  0  0  0
    4.3380   -0.1886    0.0000 N   0  0  0  0  0  0  0  0  0  0  0  0
    4.8843    1.1381    0.0000 C   0  0  0  0  0  0  0  0  0  0  0  0
    5.0989   -0.4943    0.0000 C   0  0  0  0  0  0  0  0  0  0  0  0
    5.6452    0.8325    0.0000 C   0  0  0  0  0  0  0  0  0  0  0  0
    4.9363    1.9706    0.0000 C   0  0  0  0  0  0  0  0  0  0  0  0
    5.7493    0.0195    0.0000 N   0  0  0  0  0  0  0  0  0  0  0  0
    6.1720    1.4698    0.0000 N   0  0  0  0  0  2  0  0  0  0  0  0
    5.7363    2.1722    0.0000 C   0  0  0  0  0  0  0  0  0  0  0  0
  1  2  2  0  0  0  0
  2  3  1  0  0  0  0
  2  4  1  0  0  0  0
  3  5  1  0  0  0  0
  3  6  1  0  0  0  0
  4  7  1  0  0  0  0
  5  8  1  0  0  0  0
  6  9  1  0  0  0  0
  7 10  3  0  0  0  0
  8 11  1  0  0  0  0
  8 12  1  0  0  0  0
 11 13  1  0  0  0  0
 11 14  1  0  0  0  0
 12 15  1  0  0  0  0
 13 16  2  0  0  0  0
 13 17  1  0  0  0  0
 16 18  1  0  0  0  0
 17 19  2  0  0  0  0
 17 20  1  0  0  0  0
 18 21  2  0  0  0  0
 19 22  1  0  0  0  0
 20 23  2  0  0  0  0
  9 12  1  0  0  0  0
 19 21  1  0  0  0  0
 22 23  1  0  0  0  0
M  RAD  1  22   2
M  END

>  <name>
Tofacitinib

>  <ROTATABLE_BONDCOUNT>
3

>  <HBDScore>
1.0

>  <logD>
0.92

>  <MPOScore>
6.0

>  <logDScore>
1.0

>  <MW>
311.369

>  <charge_dist(7.4)>
-0.01

>  <CNS>
FALSE

>  <ArRings>
2

>  <HBD>
0

>  <BALABAN_INDEX>
1.59

>  <bpKa>
5.02

>  <TPSAScore>
1.0

>  <MWScore>
1.0

>  <bpKaScore>
1.0

>  <logPScore>
1.0

>  <MPO_area>
100.0

>  <TPSA>
86.01

>  <logP>
0.93

$$$$

  Mrv1722703221715202D          

 21 22  0  0  0  0            999 V2000
    0.0000    0.0000    0.0000 S   0  0  0  0  0  0  0  0  0  0  0  0
   -0.3564   -0.7387    0.0000 O   0  0  0  0  0  0  0  0  0  0  0  0
    0.3434    0.7517    0.0000 O   0  0  0  0  0  0  0  0  0  0  0  0
   -0.7517    0.3564    0.0000 N   0  0  0  0  0  0  0  0  0  0  0  0
    0.7387   -0.3434    0.0000 C   0  0  0  0  0  0  0  0  0  0  0  0
   -1.4386   -0.1101    0.0000 C   0  0  0  0  0  0  0  0  0  0  0  0
    0.8035   -1.1599    0.0000 C   0  0  0  0  0  0  0  0  0  0  0  0
    1.4127    0.1361    0.0000 C   0  0  0  0  0  0  0  0  0  0  0  0
   -1.3738   -0.9266    0.0000 O   0  0  0  0  0  0  0  0  0  0  0  0
   -2.1903    0.2463    0.0000 N   0  0  0  0  0  0  0  0  0  0  0  0
    1.5423   -1.5034    0.0000 C   0  0  0  0  0  0  0  0  0  0  0  0
    2.1514   -0.2074    0.0000 C   0  0  0  0  0  0  0  0  0  0  0  0
   -2.8772   -0.2203    0.0000 N   0  0  0  0  0  0  0  0  0  0  0  0
    2.2162   -1.0239    0.0000 C   0  0  0  0  0  0  0  0  0  0  0  0
   -2.7540   -1.0304    0.0000 C   0  0  0  0  0  0  0  0  0  0  0  0
   -3.6030    0.1944    0.0000 C   0  0  0  0  0  0  0  0  0  0  0  0
    2.9549   -1.3673    0.0000 C   0  0  0  0  0  0  0  0  0  0  0  0
   -3.3178   -1.6330    0.0000 C   0  0  0  0  0  0  0  0  0  0  0  0
   -4.3741   -0.1101    0.0000 C   0  0  0  0  0  0  0  0  0  0  0  0
   -4.1473   -1.5747    0.0000 C   0  0  0  0  0  0  0  0  0  0  0  0
   -4.6139   -0.8943    0.0000 C   0  0  0  0  0  0  0  0  0  0  0  0
  1  2  2  0  0  0  0
  1  3  2  0  0  0  0
  1  4  1  0  0  0  0
  1  5  1  0  0  0  0
  4  6  1  0  0  0  0
  5  7  2  0  0  0  0
  5  8  1  0  0  0  0
  6  9  2  0  0  0  0
  6 10  1  0  0  0  0
  7 11  1  0  0  0  0
  8 12  2  0  0  0  0
 10 13  1  0  0  0  0
 11 14  2  0  0  0  0
 13 15  1  0  0  0  0
 13 16  1  0  0  0  0
 14 17  1  0  0  0  0
 15 18  1  0  0  0  0
 16 19  1  0  0  0  0
 18 20  1  0  0  0  0
 19 21  1  0  0  0  0
 12 14  1  0  0  0  0
 20 21  1  0  0  0  0
M  END

>  <name>
Tolazamide

>  <ROTATABLE_BONDCOUNT>
2

>  <HBDScore>
0.5

>  <dipole>
10.91

>  <logD>
0.97

>  <MPOScore>
5.5

>  <logDScore>
1.0

>  <MW>
311.40

>  <charge_dist(7.4)>
-1.00

>  <CNS>
FALSE

>  <ArRings>
1

>  <HBD>
2

>  <BALABAN_INDEX>
1.70

>  <bpKa>
1.61

>  <TPSAScore>
1.0

>  <MWScore>
1.0

>  <bpKaScore>
1.0

>  <logPScore>
1.0

>  <MPO_area>
83.33

>  <TPSA>
78.51

>  <logP>
1.91

$$$$

  Mrv1722703221715202D          

 24 25  0  0  0  0            999 V2000
    0.0000    0.0000    0.0000 S   0  0  0  0  0  0  0  0  0  0  0  0
   -0.2671    0.7886    0.0000 C   0  0  0  0  0  0  0  0  0  0  0  0
   -1.0811    0.9603    0.0000 N   0  0  0  0  0  0  0  0  0  0  0  0
    0.2735    1.4119    0.0000 C   0  0  0  0  0  0  0  0  0  0  0  0
   -1.3483    1.7490    0.0000 C   0  0  0  0  0  0  0  0  0  0  0  0
   -1.6344    0.3498    0.0000 C   0  0  0  0  0  0  0  0  0  0  0  0
    1.0748    1.2529    0.0000 C   0  0  0  0  0  0  0  0  0  0  0  0
    0.0064    2.2005    0.0000 C   0  0  0  0  0  0  0  0  0  0  0  0
   -2.1623    1.9206    0.0000 C   0  0  0  0  0  0  0  0  0  0  0  0
    1.6154    1.8761    0.0000 C   0  0  0  0  0  0  0  0  0  0  0  0
    1.3292    0.4770    0.0000 C   0  0  0  0  0  0  0  0  0  0  0  0
    0.5469    2.8237    0.0000 C   0  0  0  0  0  0  0  0  0  0  0  0
   -2.7156    1.3101    0.0000 O   0  0  0  0  0  0  0  0  0  0  0  0
   -2.4294    2.7092    0.0000 O   0  0  0  0  0  0  0  0  0  0  0  0
    2.4167    1.7171    0.0000 C   0  0  0  0  0  0  0  0  0  0  0  0
    1.3483    2.6647    0.0000 C   0  0  0  0  0  0  0  0  0  0  0  0
    2.1305    0.3180    0.0000 C   0  0  0  0  0  0  0  0  0  0  0  0
    2.6711    0.9412    0.0000 C   0  0  0  0  0  0  0  0  0  0  0  0
    2.9573    2.3404    0.0000 C   0  0  0  0  0  0  0  0  0  0  0  0
    3.4724    0.7822    0.0000 O   0  0  0  0  0  0  0  0  0  0  0  0
    3.4979    2.9636    0.0000 F   0  0  0  0  0  0  0  0  0  0  0  0
    3.5678    1.7998    0.0000 F   0  0  0  0  0  0  0  0  0  0  0  0
    2.3340    2.8937    0.0000 F   0  0  0  0  0  0  0  0  0  0  0  0
    3.7268    0.0064    0.0000 C   0  0  0  0  0  0  0  0  0  0  0  0
  1  2  2  0  0  0  0
  2  3  1  0  0  0  0
  2  4  1  0  0  0  0
  3  5  1  0  0  0  0
  3  6  1  0  0  0  0
  4  7  1  0  0  0  0
  4  8  2  0  0  0  0
  5  9  1  0  0  0  0
  7 10  2  0  0  0  0
  7 11  1  0  0  0  0
  8 12  1  0  0  0  0
  9 13  2  0  0  0  0
  9 14  1  0  0  0  0
 10 15  1  0  0  0  0
 10 16  1  0  0  0  0
 11 17  2  0  0  0  0
 15 18  2  0  0  0  0
 15 19  1  0  0  0  0
 18 20  1  0  0  0  0
 19 21  1  0  0  0  0
 19 22  1  0  0  0  0
 19 23  1  0  0  0  0
 20 24  1  0  0  0  0
 12 16  2  0  0  0  0
 17 18  1  0  0  0  0
M  END

>  <name>
Tolrestat

>  <ROTATABLE_BONDCOUNT>
5

>  <HBDScore>
0.8333333333333334

>  <dipole>
4.39

>  <logD>
0.16

>  <MPOScore>
5.658333333333333

>  <logDScore>
1.0

>  <MW>
357.35

>  <charge_dist(7.4)>
-1.00

>  <CNS>
FALSE

>  <ArRings>
2

>  <HBD>
1

>  <BALABAN_INDEX>
2.09

>  <bpKa>
-4.88

>  <TPSAScore>
1.0

>  <MWScore>
1.0

>  <bpKaScore>
1.0

>  <logPScore>
0.825

>  <MPO_area>
89.1

>  <TPSA>
49.77

>  <logP>
3.35

$$$$

  Mrv1722703221715202D          

 24 25  0  0  0  0            999 V2000
    0.0000    0.0000    0.0000 S   0  0  0  0  0  0  0  0  0  0  0  0
    0.2144    0.8071    0.0000 O   0  0  0  0  0  0  0  0  0  0  0  0
   -0.2270   -0.7945    0.0000 O   0  0  0  0  0  0  0  0  0  0  0  0
    0.7945   -0.2144    0.0000 N   0  0  0  0  0  0  0  0  0  0  0  0
   -0.8071    0.2270    0.0000 C   0  0  0  0  0  0  0  0  0  0  0  0
    0.9963   -1.0089    0.0000 C   0  0  0  0  0  0  0  0  0  0  0  0
   -1.3998   -0.3468    0.0000 C   0  0  0  0  0  0  0  0  0  0  0  0
   -1.0215    1.0341    0.0000 C   0  0  0  0  0  0  0  0  0  0  0  0
    0.4035   -1.5827    0.0000 O   0  0  0  0  0  0  0  0  0  0  0  0
    1.7908   -1.2233    0.0000 N   0  0  0  0  0  0  0  0  0  0  0  0
   -1.1980   -1.1413    0.0000 N   0  0  0  0  0  0  0  0  0  0  0  0
   -2.2070   -0.1198    0.0000 C   0  0  0  0  0  0  0  0  0  0  0  0
   -1.8286    1.2611    0.0000 N   0  0  0  0  0  0  0  0  0  0  0  0
    1.9926   -2.0178    0.0000 C   0  0  0  0  0  0  0  0  0  0  0  0
   -1.7908   -1.7151    0.0000 C   0  0  0  0  0  0  0  0  0  0  0  0
   -2.4214    0.6873    0.0000 C   0  0  0  0  0  0  0  0  0  0  0  0
    2.7871   -2.2322    0.0000 C   0  0  0  0  0  0  0  0  0  0  0  0
    1.3998   -2.5916    0.0000 C   0  0  0  0  0  0  0  0  0  0  0  0
   -2.5979   -1.4881    0.0000 C   0  0  0  0  0  0  0  0  0  0  0  0
   -1.5890   -2.5097    0.0000 C   0  0  0  0  0  0  0  0  0  0  0  0
   -3.1906   -2.0619    0.0000 C   0  0  0  0  0  0  0  0  0  0  0  0
   -2.1818   -3.0834    0.0000 C   0  0  0  0  0  0  0  0  0  0  0  0
   -2.9888   -2.8564    0.0000 C   0  0  0  0  0  0  0  0  0  0  0  0
   -3.9978   -1.8349    0.0000 C   0  0  0  0  0  0  0  0  0  0  0  0
  1  2  2  0  0  0  0
  1  3  2  0  0  0  0
  1  4  1  0  0  0  0
  1  5  1  0  0  0  0
  4  6  1  0  0  0  0
  5  7  2  0  0  0  0
  5  8  1  0  0  0  0
  6  9  2  0  0  0  0
  6 10  1  0  0  0  0
  7 11  1  0  0  0  0
  7 12  1  0  0  0  0
  8 13  2  0  0  0  0
 10 14  1  0  0  0  0
 11 15  1  0  0  0  0
 12 16  2  0  0  0  0
 14 17  1  0  0  0  0
 14 18  1  0  0  0  0
 15 19  2  0  0  0  0
 15 20  1  0  0  0  0
 19 21  1  0  0  0  0
 20 22  2  0  0  0  0
 21 23  2  0  0  0  0
 21 24  1  0  0  0  0
 13 16  1  0  0  0  0
 22 23  1  0  0  0  0
M  END

>  <name>
Torsemide

>  <ROTATABLE_BONDCOUNT>
4

>  <HBDScore>
0.16666666666666674

>  <dipole>
10.84

>  <logD>
1.12

>  <MPOScore>
4.827

>  <logDScore>
1.0

>  <MW>
348.42

>  <charge_dist(7.4)>
-0.97

>  <CNS>
FALSE

>  <ArRings>
2

>  <HBD>
3

>  <BALABAN_INDEX>
1.88

>  <bpKa>
4.2

>  <TPSAScore>
0.6603333333333334

>  <MWScore>
1.0

>  <bpKaScore>
1.0

>  <logPScore>
1.0

>  <MPO_area>
65.62

>  <TPSA>
100.19

>  <logP>
1.86

$$$$

  Mrv1722703221715202D          

 11 11  0  0  1  0            999 V2000
    0.0000    0.0000    0.0000 O   0  0  0  0  0  0  0  0  0  0  0  0
   -0.3467   -0.7385    0.0000 C   0  0  0  0  0  0  0  0  0  0  0  0
    0.1220   -1.3999    0.0000 O   0  0  0  0  0  0  0  0  0  0  0  0
   -1.1687   -0.8091    0.0000 C   0  0  1  0  0  0  0  0  0  0  0  0
   -1.6504   -0.1348    0.0000 C   0  0  0  0  0  0  0  0  0  0  0  0
   -1.5155   -1.5476    0.0000 C   0  0  0  0  0  0  0  0  0  0  0  0
   -2.4723   -0.2055    0.0000 C   0  0  0  0  0  0  0  0  0  0  0  0
   -2.3375   -1.6182    0.0000 C   0  0  0  0  0  0  0  0  0  0  0  0
   -2.8191   -0.9440    0.0000 C   0  0  1  0  0  0  0  0  0  0  0  0
   -3.6410   -1.0146    0.0000 C   0  0  0  0  0  0  0  0  0  0  0  0
   -4.1227   -0.3403    0.0000 N   0  0  0  0  0  0  0  0  0  0  0  0
  1  2  2  0  0  0  0
  2  3  1  0  0  0  0
  4  2  1  6  0  0  0
  4  5  1  0  0  0  0
  4  6  1  0  0  0  0
  5  7  1  0  0  0  0
  6  8  1  0  0  0  0
  7  9  1  0  0  0  0
  9 10  1  1  0  0  0
 10 11  1  0  0  0  0
  8  9  1  0  0  0  0
M  END

>  <name>
Tranexamic_acid

>  <ROTATABLE_BONDCOUNT>
2

>  <HBDScore>
0.5

>  <dipole>
3.61

>  <logD>
-1.55

>  <MPOScore>
4.5

>  <logDScore>
1.0

>  <MW>
157.213

>  <charge_dist(7.4)>
-0.00

>  <CNS>
FALSE

>  <ArRings>
0

>  <HBD>
2

>  <BALABAN_INDEX>
2.04

>  <bpKa>
10.22

>  <TPSAScore>
1.0

>  <MWScore>
1.0

>  <bpKaScore>
0.0

>  <logPScore>
1.0

>  <MPO_area>
58.33

>  <TPSA>
63.32

>  <logP>
-1.55

$$$$

  Mrv1722703221715202D          

 28 30  0  0  0  0            999 V2000
    0.0000    0.0000    0.0000 O   0  0  0  0  0  0  0  0  0  0  0  0
    0.2709    0.7804    0.0000 C   0  0  0  0  0  0  0  0  0  0  0  0
    1.0706    0.9352    0.0000 O   0  0  0  0  0  0  0  0  0  0  0  0
   -0.2644    1.4125    0.0000 C   0  0  0  0  0  0  0  0  0  0  0  0
   -1.0771    1.2706    0.0000 O   0  0  0  0  0  0  0  0  0  0  0  0
   -1.6124    1.9027    0.0000 C   0  0  0  0  0  0  0  0  0  0  0  0
   -2.4251    1.7608    0.0000 C   0  0  0  0  0  0  0  0  0  0  0  0
   -1.3416    2.6831    0.0000 C   0  0  0  0  0  0  0  0  0  0  0  0
   -2.9604    2.3929    0.0000 C   0  0  0  0  0  0  0  0  0  0  0  0
   -2.7089    0.9933    0.0000 C   0  0  0  0  0  0  0  0  0  0  0  0
   -1.8769    3.3152    0.0000 C   0  0  0  0  0  0  0  0  0  0  0  0
   -2.6896    3.1733    0.0000 C   0  0  0  0  0  0  0  0  0  0  0  0
   -3.7731    2.2510    0.0000 C   0  0  0  0  0  0  0  0  0  0  0  0
   -3.5216    0.8514    0.0000 C   0  0  1  0  0  0  0  0  0  0  0  0
   -4.0569    1.4834    0.0000 C   0  0  2  0  0  0  0  0  0  0  0  0
   -3.9602    0.1613    0.0000 C   0  0  0  0  0  0  0  0  0  0  0  0
   -4.8244    1.1803    0.0000 C   0  0  1  0  0  0  0  0  0  0  0  0
   -4.7599    0.3612    0.0000 C   0  0  1  0  0  0  0  0  0  0  0  0
   -5.5275    1.6189    0.0000 C   0  0  0  0  0  0  0  0  0  0  0  0
   -5.3920   -0.1613    0.0000 O   0  0  0  0  0  0  0  0  0  0  0  0
   -6.2563    1.2383    0.0000 C   0  0  0  0  0  0  0  0  0  0  0  0
   -6.9593    1.6770    0.0000 C   0  0  2  0  0  0  0  0  0  0  0  0
   -6.9400    2.5025    0.0000 O   0  0  0  0  0  0  0  0  0  0  0  0
   -7.6881    1.2964    0.0000 C   0  0  0  0  0  0  0  0  0  0  0  0
   -8.3912    1.7350    0.0000 C   0  0  0  0  0  0  0  0  0  0  0  0
   -9.1200    1.3544    0.0000 C   0  0  0  0  0  0  0  0  0  0  0  0
   -9.8230    1.7930    0.0000 C   0  0  0  0  0  0  0  0  0  0  0  0
  -10.5518    1.4125    0.0000 C   0  0  0  0  0  0  0  0  0  0  0  0
  1  2  2  0  0  0  0
  2  3  1  0  0  0  0
  2  4  1  0  0  0  0
  4  5  1  0  0  0  0
  5  6  1  0  0  0  0
  6  7  2  0  0  0  0
  6  8  1  0  0  0  0
  7  9  1  0  0  0  0
  7 10  1  0  0  0  0
  8 11  2  0  0  0  0
  9 12  2  0  0  0  0
  9 13  1  0  0  0  0
 14 10  1  6  0  0  0
 15 13  1  6  0  0  0
 14 16  1  0  0  0  0
 15 17  1  0  0  0  0
 16 18  1  0  0  0  0
 17 19  1  1  0  0  0
 18 20  1  6  0  0  0
 19 21  1  0  0  0  0
 21 22  1  0  0  0  0
 22 23  1  1  0  0  0
 22 24  1  0  0  0  0
 24 25  1  0  0  0  0
 25 26  1  0  0  0  0
 26 27  1  0  0  0  0
 27 28  1  0  0  0  0
 11 12  1  0  0  0  0
 14 15  1  0  0  0  0
 17 18  1  0  0  0  0
M  END

>  <name>
Treprostinil

>  <ROTATABLE_BONDCOUNT>
10

>  <HBDScore>
0.16666666666666674

>  <dipole>
1.20

>  <logD>
0.72

>  <MPOScore>
4.448666666666667

>  <logDScore>
1.0

>  <MW>
390.520

>  <charge_dist(7.4)>
-1.00

>  <CNS>
FALSE

>  <ArRings>
1

>  <HBD>
3

>  <BALABAN_INDEX>
1.42

>  <bpKa>
-1.28

>  <TPSAScore>
1.0

>  <MWScore>
0.7820000000000001

>  <bpKaScore>
1.0

>  <logPScore>
0.5

>  <MPO_area>
57.05

>  <TPSA>
86.99

>  <logP>
4.00

$$$$

  Mrv1722703221715202D          

 19 21  0  0  0  0            999 V2000
    0.0000    0.0000    0.0000 N   0  0  0  0  0  0  0  0  0  0  0  0
    0.5522    0.6025    0.0000 C   0  0  0  0  0  0  0  0  0  0  0  0
   -0.8033    0.1883    0.0000 C   0  0  0  0  0  0  0  0  0  0  0  0
    0.3075    1.3932    0.0000 N   0  0  0  0  0  0  0  0  0  0  0  0
    1.3430    0.4268    0.0000 N   0  0  0  0  0  0  0  0  0  0  0  0
   -1.3681   -0.4016    0.0000 N   0  0  0  0  0  0  0  0  0  0  0  0
   -1.0480    0.9790    0.0000 C   0  0  0  0  0  0  0  0  0  0  0  0
   -0.4958    1.5815    0.0000 C   0  0  0  0  0  0  0  0  0  0  0  0
   -2.1713   -0.2134    0.0000 C   0  0  0  0  0  0  0  0  0  0  0  0
   -1.8513    1.1673    0.0000 N   0  0  0  0  0  0  0  0  0  0  0  0
   -0.7405    2.3721    0.0000 N   0  0  0  0  0  0  0  0  0  0  0  0
   -2.7361   -0.8033    0.0000 N   0  0  0  0  0  0  0  0  0  0  0  0
   -2.4161    0.5774    0.0000 C   0  0  0  0  0  0  0  0  0  0  0  0
   -3.2193    0.7656    0.0000 C   0  0  0  0  0  0  0  0  0  0  0  0
   -3.7841    0.1757    0.0000 C   0  0  0  0  0  0  0  0  0  0  0  0
   -3.4641    1.5564    0.0000 C   0  0  0  0  0  0  0  0  0  0  0  0
   -4.5874    0.3640    0.0000 C   0  0  0  0  0  0  0  0  0  0  0  0
   -4.2674    1.7446    0.0000 C   0  0  0  0  0  0  0  0  0  0  0  0
   -4.8322    1.1547    0.0000 C   0  0  0  0  0  0  0  0  0  0  0  0
  1  2  2  0  0  0  0
  1  3  1  0  0  0  0
  2  4  1  0  0  0  0
  2  5  1  0  0  0  0
  3  6  2  0  0  0  0
  3  7  1  0  0  0  0
  4  8  2  0  0  0  0
  6  9  1  0  0  0  0
  7 10  2  0  0  0  0
  8 11  1  0  0  0  0
  9 12  1  0  0  0  0
  9 13  2  0  0  0  0
 13 14  1  0  0  0  0
 14 15  2  0  0  0  0
 14 16  1  0  0  0  0
 15 17  1  0  0  0  0
 16 18  2  0  0  0  0
 17 19  2  0  0  0  0
  7  8  1  0  0  0  0
 10 13  1  0  0  0  0
 18 19  1  0  0  0  0
M  END

>  <name>
Triamterene

>  <ROTATABLE_BONDCOUNT>
1

>  <HBDScore>
0.16666666666666674

>  <dipole>
1.32

>  <logD>
1.11

>  <MPOScore>
4.166666666666667

>  <logDScore>
1.0

>  <MW>
253.269

>  <charge_dist(7.4)>
0.00

>  <CNS>
FALSE

>  <ArRings>
3

>  <HBD>
3

>  <BALABAN_INDEX>
1.60

>  <bpKa>
1.86

>  <TPSAScore>
0.0

>  <MWScore>
1.0

>  <bpKaScore>
1.0

>  <logPScore>
1.0

>  <MPO_area>
52.78

>  <TPSA>
129.62

>  <logP>
1.11

$$$$

  Mrv1722703221715202D          

 23 24  0  0  0  0            999 V2000
    0.0000    0.0000    0.0000 O   0  0  0  0  0  0  0  0  0  0  0  0
   -0.2526    0.7893    0.0000 C   0  0  2  0  0  0  0  0  0  0  0  0
   -0.5052    1.5787    0.0000 C   0  0  0  0  0  0  0  0  0  0  0  0
   -1.0420    0.5494    0.0000 C   0  0  0  0  0  0  0  0  0  0  0  0
    0.5241    1.0420    0.0000 C   0  0  0  0  0  0  0  0  0  0  0  0
    0.0442    2.1912    0.0000 C   0  0  0  0  0  0  0  0  0  0  0  0
   -1.3134    1.7618    0.0000 C   0  0  0  0  0  0  0  0  0  0  0  0
   -1.6545    1.1114    0.0000 C   0  0  0  0  0  0  0  0  0  0  0  0
   -1.2251   -0.2463    0.0000 C   0  0  0  0  0  0  0  0  0  0  0  0
    1.1240    0.4925    0.0000 C   0  0  0  0  0  0  0  0  0  0  0  0
   -0.2084    2.9805    0.0000 C   0  0  0  0  0  0  0  0  0  0  0  0
   -1.5661    2.5512    0.0000 C   0  0  0  0  0  0  0  0  0  0  0  0
   -2.4438    0.8714    0.0000 C   0  0  0  0  0  0  0  0  0  0  0  0
   -2.0144   -0.4862    0.0000 C   0  0  0  0  0  0  0  0  0  0  0  0
    1.9007    0.7452    0.0000 N   0  3  0  0  0  0  0  0  0  0  0  0
   -1.0167    3.1637    0.0000 C   0  0  0  0  0  0  0  0  0  0  0  0
   -2.6269    0.0758    0.0000 C   0  0  0  0  0  0  0  0  0  0  0  0
    2.1407   -0.0316    0.0000 C   0  0  0  0  0  0  0  0  0  0  0  0
    1.6482    1.5345    0.0000 C   0  0  0  0  0  0  0  0  0  0  0  0
    2.6774    0.9977    0.0000 C   0  0  0  0  0  0  0  0  0  0  0  0
    2.9364   -0.2021    0.0000 C   0  0  0  0  0  0  0  0  0  0  0  0
    2.1975    2.1470    0.0000 C   0  0  0  0  0  0  0  0  0  0  0  0
    2.8479    1.8060    0.0000 C   0  0  0  0  0  0  0  0  0  0  0  0
  1  2  1  0  0  0  0
  2  3  1  1  0  0  0
  2  4  1  0  0  0  0
  2  5  1  0  0  0  0
  3  6  2  0  0  0  0
  3  7  1  0  0  0  0
  4  8  1  0  0  0  0
  4  9  1  0  0  0  0
  5 10  1  0  0  0  0
  6 11  1  0  0  0  0
  7 12  2  0  0  0  0
  8 13  1  0  0  0  0
  9 14  1  0  0  0  0
 10 15  1  0  0  0  0
 11 16  2  0  0  0  0
 13 17  1  0  0  0  0
 15 18  1  0  0  0  0
 15 19  1  0  0  0  0
 15 20  1  0  0  0  0
 18 21  1  0  0  0  0
 19 22  1  0  0  0  0
 20 23  1  0  0  0  0
 12 16  1  0  0  0  0
 14 17  1  0  0  0  0
M  CHG  1  15   1
M  END

>  <name>
Tridihexethyl

>  <ROTATABLE_BONDCOUNT>
8

>  <HBDScore>
0.8333333333333334

>  <dipole>
14.29

>  <logD>
0.29

>  <MPOScore>
4.844833333333333

>  <logDScore>
1.0

>  <MW>
318.524

>  <charge_dist(7.4)>
-0.00

>  <CNS>
FALSE

>  <ArRings>
1

>  <HBD>
1

>  <BALABAN_INDEX>
2.11

>  <bpKa>
-3.37

>  <TPSAScore>
0.011500000000000022

>  <MWScore>
1.0

>  <bpKaScore>
1.0

>  <logPScore>
1.0

>  <MPO_area>
64.24

>  <TPSA>
20.23

>  <logP>
0.29

$$$$

  Mrv1722703221715202D          

 28 29  0  0  0  0            999 V2000
    0.0000    0.0000    0.0000 O   0  0  0  0  0  0  0  0  0  0  0  0
   -0.2243    0.7974    0.0000 C   0  0  0  0  0  0  0  0  0  0  0  0
   -1.0217    1.0092    0.0000 N   0  0  0  0  0  0  0  0  0  0  0  0
    0.3426    1.3829    0.0000 C   0  0  0  0  0  0  0  0  0  0  0  0
   -1.6010    0.4361    0.0000 C   0  0  0  0  0  0  0  0  0  0  0  0
    1.1276    1.1836    0.0000 C   0  0  0  0  0  0  0  0  0  0  0  0
    0.1183    2.1803    0.0000 C   0  0  0  0  0  0  0  0  0  0  0  0
   -2.3984    0.6479    0.0000 C   0  0  0  0  0  0  0  0  0  0  0  0
    1.6944    1.7692    0.0000 C   0  0  0  0  0  0  0  0  0  0  0  0
    0.6852    2.7659    0.0000 C   0  0  0  0  0  0  0  0  0  0  0  0
   -2.6227    1.4453    0.0000 C   0  0  0  0  0  0  0  0  0  0  0  0
   -2.9777    0.0748    0.0000 C   0  0  0  0  0  0  0  0  0  0  0  0
    2.4794    1.5699    0.0000 O   0  0  0  0  0  0  0  0  0  0  0  0
    1.4702    2.5666    0.0000 C   0  0  0  0  0  0  0  0  0  0  0  0
    0.4610    3.5633    0.0000 O   0  0  0  0  0  0  0  0  0  0  0  0
   -3.4201    1.6571    0.0000 C   0  0  0  0  0  0  0  0  0  0  0  0
   -3.7751    0.2866    0.0000 C   0  0  0  0  0  0  0  0  0  0  0  0
    2.6912    0.7849    0.0000 C   0  0  0  0  0  0  0  0  0  0  0  0
    2.0371    3.1521    0.0000 O   0  0  0  0  0  0  0  0  0  0  0  0
    1.0279    4.1489    0.0000 C   0  0  0  0  0  0  0  0  0  0  0  0
   -3.9994    1.0840    0.0000 C   0  0  0  0  0  0  0  0  0  0  0  0
    2.8220    2.9528    0.0000 C   0  0  0  0  0  0  0  0  0  0  0  0
   -4.7968    1.2958    0.0000 O   0  0  0  0  0  0  0  0  0  0  0  0
   -5.0210    2.0931    0.0000 C   0  0  0  0  0  0  0  0  0  0  0  0
   -5.8184    2.3049    0.0000 C   0  0  0  0  0  0  0  0  0  0  0  0
   -6.0427    3.1023    0.0000 N   0  0  0  0  0  0  0  0  0  0  0  0
   -6.8401    3.3141    0.0000 C   0  0  0  0  0  0  0  0  0  0  0  0
   -5.4758    3.6879    0.0000 C   0  0  0  0  0  0  0  0  0  0  0  0
  1  2  2  0  0  0  0
  2  3  1  0  0  0  0
  2  4  1  0  0  0  0
  3  5  1  0  0  0  0
  4  6  2  0  0  0  0
  4  7  1  0  0  0  0
  5  8  1  0  0  0  0
  6  9  1  0  0  0  0
  7 10  2  0  0  0  0
  8 11  2  0  0  0  0
  8 12  1  0  0  0  0
  9 13  1  0  0  0  0
  9 14  2  0  0  0  0
 10 15  1  0  0  0  0
 11 16  1  0  0  0  0
 12 17  2  0  0  0  0
 13 18  1  0  0  0  0
 14 19  1  0  0  0  0
 15 20  1  0  0  0  0
 16 21  2  0  0  0  0
 19 22  1  0  0  0  0
 21 23  1  0  0  0  0
 23 24  1  0  0  0  0
 24 25  1  0  0  0  0
 25 26  1  0  0  0  0
 26 27  1  0  0  0  0
 26 28  1  0  0  0  0
 10 14  1  0  0  0  0
 17 21  1  0  0  0  0
M  END

>  <name>
Trimethobenzamide

>  <ROTATABLE_BONDCOUNT>
10

>  <HBDScore>
0.8333333333333334

>  <dipole>
7.84

>  <logD>
0.77

>  <MPOScore>
5.2450190476190475

>  <logDScore>
1.0

>  <MW>
388.464

>  <charge_dist(7.4)>
0.96

>  <CNS>
FALSE

>  <ArRings>
2

>  <HBD>
1

>  <BALABAN_INDEX>
1.58

>  <bpKa>
8.77

>  <TPSAScore>
1.0

>  <MWScore>
0.7966857142857143

>  <bpKaScore>
0.6150000000000002

>  <logPScore>
1.0

>  <MPO_area>
76.7

>  <TPSA>
69.26

>  <logP>
2.16

$$$$

  Mrv1722703221715202D          

 21 22  0  0  0  0            999 V2000
    0.0000    0.0000    0.0000 O   0  0  0  0  0  0  0  0  0  0  0  0
   -0.7379   -0.3689    0.0000 C   0  0  0  0  0  0  0  0  0  0  0  0
    0.6861   -0.4401    0.0000 C   0  0  0  0  0  0  0  0  0  0  0  0
   -0.7897   -1.1845    0.0000 C   0  0  0  0  0  0  0  0  0  0  0  0
   -1.4369    0.0841    0.0000 C   0  0  0  0  0  0  0  0  0  0  0  0
   -0.1035   -1.6246    0.0000 O   0  0  0  0  0  0  0  0  0  0  0  0
   -1.5275   -1.5535    0.0000 C   0  0  0  0  0  0  0  0  0  0  0  0
   -1.3981    0.9126    0.0000 O   0  0  0  0  0  0  0  0  0  0  0  0
   -2.1748   -0.2848    0.0000 C   0  0  0  0  0  0  0  0  0  0  0  0
   -0.1554   -2.4402    0.0000 C   0  0  0  0  0  0  0  0  0  0  0  0
   -2.2266   -1.1004    0.0000 C   0  0  0  0  0  0  0  0  0  0  0  0
   -0.6732    1.2946    0.0000 C   0  0  0  0  0  0  0  0  0  0  0  0
   -2.9645   -1.4693    0.0000 C   0  0  0  0  0  0  0  0  0  0  0  0
   -3.6635   -1.0162    0.0000 C   0  0  0  0  0  0  0  0  0  0  0  0
   -4.4015   -1.3852    0.0000 C   0  0  0  0  0  0  0  0  0  0  0  0
   -3.6247   -0.1877    0.0000 C   0  0  0  0  0  0  0  0  0  0  0  0
   -5.1005   -0.9321    0.0000 N   0  0  0  0  0  0  0  0  0  0  0  0
   -4.4532   -2.2007    0.0000 N   0  0  0  0  0  0  0  0  0  0  0  0
   -4.3238    0.2654    0.0000 N   0  0  0  0  0  0  0  0  0  0  0  0
   -5.0616   -0.1035    0.0000 C   0  0  0  0  0  0  0  0  0  0  0  0
   -5.7607    0.3495    0.0000 N   0  0  0  0  0  0  0  0  0  0  0  0
  1  2  1  0  0  0  0
  1  3  1  0  0  0  0
  2  4  2  0  0  0  0
  2  5  1  0  0  0  0
  4  6  1  0  0  0  0
  4  7  1  0  0  0  0
  5  8  1  0  0  0  0
  5  9  2  0  0  0  0
  6 10  1  0  0  0  0
  7 11  2  0  0  0  0
  8 12  1  0  0  0  0
 11 13  1  0  0  0  0
 13 14  1  0  0  0  0
 14 15  2  0  0  0  0
 14 16  1  0  0  0  0
 15 17  1  0  0  0  0
 15 18  1  0  0  0  0
 16 19  2  0  0  0  0
 17 20  2  0  0  0  0
 20 21  1  0  0  0  0
  9 11  1  0  0  0  0
 19 20  1  0  0  0  0
M  END

>  <name>
Trimethoprim

>  <ROTATABLE_BONDCOUNT>
5

>  <HBDScore>
0.5

>  <dipole>
3.28

>  <logD>
1.10

>  <MPOScore>
4.983

>  <logDScore>
1.0

>  <MW>
290.323

>  <charge_dist(7.4)>
0.36

>  <CNS>
FALSE

>  <ArRings>
2

>  <HBD>
2

>  <BALABAN_INDEX>
1.85

>  <bpKa>
7.16

>  <TPSAScore>
0.4829999999999999

>  <MWScore>
1.0

>  <bpKaScore>
1.0

>  <logPScore>
1.0

>  <MPO_area>
70.41

>  <TPSA>
105.51

>  <logP>
1.28

$$$$

  Mrv1722703221715202D          

 17 19  0  0  0  0            999 V2000
    0.0000    0.0000    0.0000 O   0  0  0  0  0  0  0  0  0  0  0  0
   -0.7154    0.4190    0.0000 C   0  0  0  0  0  0  0  0  0  0  0  0
   -1.4308    0.0193    0.0000 O   0  0  0  0  0  0  0  0  0  0  0  0
   -0.7154    1.2440    0.0000 C   0  0  0  0  0  0  0  0  0  0  0  0
   -2.1463    0.4383    0.0000 C   0  0  0  0  0  0  0  0  0  0  0  0
   -1.4308    1.6629    0.0000 C   0  0  0  0  0  0  0  0  0  0  0  0
   -2.1463    1.2633    0.0000 C   0  0  0  0  0  0  0  0  0  0  0  0
   -2.8618    0.0387    0.0000 C   0  0  0  0  0  0  0  0  0  0  0  0
   -1.4308    2.4879    0.0000 C   0  0  0  0  0  0  0  0  0  0  0  0
   -2.8618    1.6823    0.0000 C   0  0  0  0  0  0  0  0  0  0  0  0
   -3.5772    0.4576    0.0000 C   0  0  0  0  0  0  0  0  0  0  0  0
   -2.8746   -0.7735    0.0000 C   0  0  0  0  0  0  0  0  0  0  0  0
   -3.5772    1.2826    0.0000 C   0  0  0  0  0  0  0  0  0  0  0  0
   -4.3635    0.2127    0.0000 O   0  0  0  0  0  0  0  0  0  0  0  0
   -4.3635    1.5469    0.0000 C   0  0  0  0  0  0  0  0  0  0  0  0
   -4.8469    0.8830    0.0000 C   0  0  0  0  0  0  0  0  0  0  0  0
   -5.6719    0.8959    0.0000 C   0  0  0  0  0  0  0  0  0  0  0  0
  1  2  2  0  0  0  0
  2  3  1  0  0  0  0
  2  4  1  0  0  0  0
  3  5  1  0  0  0  0
  4  6  2  0  0  0  0
  5  7  2  0  0  0  0
  5  8  1  0  0  0  0
  6  9  1  0  0  0  0
  7 10  1  0  0  0  0
  8 11  2  0  0  0  0
  8 12  1  0  0  0  0
 10 13  2  0  0  0  0
 11 14  1  0  0  0  0
 13 15  1  0  0  0  0
 14 16  1  0  0  0  0
 16 17  1  0  0  0  0
  6  7  1  0  0  0  0
 11 13  1  0  0  0  0
 15 16  2  0  0  0  0
M  END

>  <name>
Trioxsalen

>  <ROTATABLE_BONDCOUNT>
0

>  <HBDScore>
1.0

>  <dipole>
12.53

>  <logD>
2.95

>  <MPOScore>
5.497

>  <logDScore>
0.5249999999999999

>  <MW>
228.247

>  <charge_dist(7.4)>
0.00

>  <CNS>
FALSE

>  <ArRings>
3

>  <HBD>
0

>  <BALABAN_INDEX>
1.52

>  <bpKa>
-2.82

>  <TPSAScore>
0.972

>  <MWScore>
1.0

>  <bpKaScore>
1.0

>  <logPScore>
1.0

>  <MPO_area>
83.45

>  <TPSA>
39.44

>  <logP>
2.95

$$$$

  Mrv1722703221715202D          

 57 60  0  0  0  0            999 V2000
    0.0000    0.0000    0.0000 O   0  0  0  0  0  0  0  0  0  0  0  0
    0.0196   -0.8230    0.0000 C   0  0  0  0  0  0  0  0  0  0  0  0
   -0.7904   -1.0255    0.0000 O   0  0  0  0  0  0  0  0  0  0  0  0
    0.8295   -0.9798    0.0000 C   0  0  2  0  0  0  0  0  0  0  0  0
   -1.4305   -1.5546    0.0000 C   0  0  2  0  0  0  0  0  0  0  0  0
    1.4892   -1.4697    0.0000 C   0  0  2  0  0  0  0  0  0  0  0  0
    1.1627   -0.2156    0.0000 C   0  0  0  0  0  0  0  0  0  0  0  0
   -1.7766   -2.3057    0.0000 C   0  0  2  0  0  0  0  0  0  0  0  0
   -2.1032   -1.0516    0.0000 C   0  0  0  0  0  0  0  0  0  0  0  0
    2.1163   -0.9275    0.0000 O   0  0  0  0  0  0  0  0  0  0  0  0
    1.8616   -2.2012    0.0000 C   0  0  2  0  0  0  0  0  0  0  0  0
   -1.7571   -3.1287    0.0000 C   0  0  1  0  0  0  0  0  0  0  0  0
   -2.5735   -2.0379    0.0000 C   0  0  0  0  0  0  0  0  0  0  0  0
    2.8936   -1.2018    0.0000 C   0  0  1  0  0  0  0  0  0  0  0  0
    1.8811   -3.0242    0.0000 C   0  0  2  0  0  0  0  0  0  0  0  0
    2.5996   -2.1881    0.0000 C   0  0  0  0  0  0  0  0  0  0  0  0
   -2.5670   -3.3312    0.0000 O   0  0  0  0  0  0  0  0  0  0  0  0
   -1.3847   -3.8603    0.0000 C   0  0  1  0  0  0  0  0  0  0  0  0
    3.0373   -2.0118    0.0000 O   0  0  0  0  0  0  0  0  0  0  0  0
    3.5206   -0.6597    0.0000 C   0  0  0  0  0  0  0  0  0  0  0  0
    2.6911   -3.1809    0.0000 O   0  0  0  0  0  0  0  0  0  0  0  0
    1.5349   -3.7754    0.0000 C   0  0  1  0  0  0  0  0  0  0  0  0
   -3.1548   -2.7303    0.0000 C   0  0  0  0  0  0  0  0  0  0  0  0
   -0.7250   -4.3501    0.0000 C   0  0  0  0  0  0  0  0  0  0  0  0
   -2.0248   -4.3894    0.0000 C   0  0  0  0  0  0  0  0  0  0  0  0
    3.8145   -2.2861    0.0000 C   0  0  1  0  0  0  0  0  0  0  0  0
    4.2979   -0.9341    0.0000 C   0  0  2  0  0  0  0  0  0  0  0  0
    2.9524   -3.9582    0.0000 C   0  0  1  0  0  0  0  0  0  0  0  0
    0.8949   -4.3044    0.0000 C   0  0  0  0  0  0  0  0  0  0  0  0
    1.9987   -4.3501    0.0000 C   0  0  0  0  0  0  0  0  0  0  0  0
   -3.0373   -1.9008    0.0000 O   0  0  0  0  0  0  0  0  0  0  0  0
   -3.9648   -2.9328    0.0000 C   0  0  0  0  0  0  0  0  0  0  0  0
   -1.0712   -5.1013    0.0000 O   0  0  0  0  0  0  0  0  0  0  0  0
    0.0849   -4.5069    0.0000 C   0  0  2  0  0  0  0  0  0  0  0  0
    4.4416   -1.7440    0.0000 C   0  0  2  0  0  0  0  0  0  0  0  0
    3.9582   -3.0960    0.0000 C   0  0  0  0  0  0  0  0  0  0  0  0
    4.9249   -0.3919    0.0000 O   0  0  0  0  0  0  0  0  0  0  0  0
    2.3972   -4.5788    0.0000 O   0  0  0  0  0  0  0  0  0  0  0  0
    3.7623   -4.1150    0.0000 C   0  0  1  0  0  0  0  0  0  0  0  0
    0.5160   -5.2058    0.0000 O   0  0  0  0  0  0  0  0  0  0  0  0
   -0.3136   -5.2319    0.0000 C   0  0  0  0  0  0  0  0  0  0  0  0
    5.2189   -2.0183    0.0000 O   0  0  0  0  0  0  0  0  0  0  0  0
    4.7682    0.4311    0.0000 C   0  0  0  0  0  0  0  0  0  0  0  0
    2.6584   -5.3561    0.0000 C   0  0  2  0  0  0  0  0  0  0  0  0
    4.3044   -3.4814    0.0000 O   0  0  0  0  0  0  0  0  0  0  0  0
    4.0236   -4.8923    0.0000 C   0  0  1  0  0  0  0  0  0  0  0  0
    5.8460   -1.4762    0.0000 C   0  0  0  0  0  0  0  0  0  0  0  0
    3.4684   -5.5128    0.0000 C   0  0  0  0  0  0  0  0  0  0  0  0
    2.1032   -5.9766    0.0000 C   0  0  0  0  0  0  0  0  0  0  0  0
    5.1144   -3.6382    0.0000 C   0  0  0  0  0  0  0  0  0  0  0  0
    4.8335   -5.0491    0.0000 N   0  0  0  0  0  0  0  0  0  0  0  0
    5.6892   -0.6532    0.0000 O   0  0  0  0  0  0  0  0  0  0  0  0
    6.6232   -1.7505    0.0000 C   0  0  0  0  0  0  0  0  0  0  0  0
    5.3691   -4.1738    0.0000 O   0  0  0  0  0  0  0  0  0  0  0  0
    5.6565   -3.0046    0.0000 C   0  0  0  0  0  0  0  0  0  0  0  0
    5.0948   -5.8263    0.0000 C   0  0  0  0  0  0  0  0  0  0  0  0
    5.2777   -4.6375    0.0000 C   0  0  0  0  0  0  0  0  0  0  0  0
  1  2  2  0  0  0  0
  2  3  1  0  0  0  0
  2  4  1  0  0  0  0
  3  5  1  0  0  0  0
  4  6  1  0  0  0  0
  4  7  1  1  0  0  0
  5  8  1  0  0  0  0
  5  9  1  6  0  0  0
  6 10  1  6  0  0  0
  6 11  1  0  0  0  0
  8 12  1  0  0  0  0
  8 13  1  6  0  0  0
 14 10  1  6  0  0  0
 11 15  1  0  0  0  0
 11 16  1  1  0  0  0
 12 17  1  6  0  0  0
 12 18  1  0  0  0  0
 14 19  1  0  0  0  0
 14 20  1  0  0  0  0
 15 21  1  6  0  0  0
 15 22  1  0  0  0  0
 17 23  1  0  0  0  0
 18 24  1  0  0  0  0
 18 25  1  1  0  0  0
 19 26  1  0  0  0  0
 20 27  1  0  0  0  0
 28 21  1  6  0  0  0
 22 29  1  0  0  0  0
 22 30  1  6  0  0  0
 23 31  2  0  0  0  0
 23 32  1  0  0  0  0
 24 33  2  0  0  0  0
 24 34  1  0  0  0  0
 26 35  1  0  0  0  0
 26 36  1  1  0  0  0
 27 37  1  1  0  0  0
 28 38  1  0  0  0  0
 28 39  1  0  0  0  0
 34 40  1  6  0  0  0
 34 41  1  0  0  0  0
 35 42  1  6  0  0  0
 37 43  1  0  0  0  0
 38 44  1  0  0  0  0
 39 45  1  1  0  0  0
 39 46  1  0  0  0  0
 42 47  1  0  0  0  0
 44 48  1  0  0  0  0
 44 49  1  6  0  0  0
 45 50  1  0  0  0  0
 46 51  1  6  0  0  0
 47 52  2  0  0  0  0
 47 53  1  0  0  0  0
 50 54  2  0  0  0  0
 50 55  1  0  0  0  0
 51 56  1  0  0  0  0
 51 57  1  0  0  0  0
 27 35  1  0  0  0  0
 29 34  1  0  0  0  0
 40 41  1  0  0  0  0
 46 48  1  0  0  0  0
M  END

>  <name>
Troleandomycin

>  <ROTATABLE_BONDCOUNT>
12

>  <HBDScore>
1.0

>  <dipole>
6.53

>  <logD>
3.70

>  <MPOScore>
2.5

>  <logDScore>
0.1499999999999999

>  <MW>
813.979

>  <charge_dist(7.4)>
0.75

>  <CNS>
FALSE

>  <ArRings>
0

>  <HBD>
0

>  <BALABAN_INDEX>
1.80

>  <bpKa>
7.87

>  <TPSAScore>
0.0

>  <MWScore>
0.0

>  <bpKaScore>
1.0

>  <logPScore>
0.3500000000000001

>  <MPO_area>
23.38

>  <TPSA>
184.19

>  <logP>
4.30

$$$$

  Mrv1722703221715202D          

 29 33  0  0  1  0            999 V2000
    0.0000    0.0000    0.0000 O   0  0  0  0  0  0  0  0  0  0  0  0
    0.1823    0.8138    0.0000 C   0  0  0  0  0  0  0  0  0  0  0  0
   -0.4232    1.3868    0.0000 O   0  0  0  0  0  0  0  0  0  0  0  0
    0.9701    1.0613    0.0000 C   0  0  0  0  0  0  0  0  0  0  0  0
   -1.2241    1.1525    0.0000 C   0  0  2  0  0  0  0  0  0  0  0  0
    1.7580    1.3087    0.0000 O   0  0  0  0  0  0  0  0  0  0  0  0
    0.7227    1.8621    0.0000 C   0  0  0  0  0  0  0  0  0  0  0  0
    1.2045    0.2735    0.0000 C   0  0  0  0  0  0  0  0  0  0  0  0
   -1.8296    1.7254    0.0000 C   0  0  0  0  0  0  0  0  0  0  0  0
   -1.4194    0.3516    0.0000 C   0  0  0  0  0  0  0  0  0  0  0  0
    1.2827    2.4676    0.0000 C   0  0  0  0  0  0  0  0  0  0  0  0
   -0.0912    2.0575    0.0000 C   0  0  0  0  0  0  0  0  0  0  0  0
    0.6315   -0.3191    0.0000 C   0  0  0  0  0  0  0  0  0  0  0  0
    2.0054    0.0912    0.0000 C   0  0  0  0  0  0  0  0  0  0  0  0
   -2.6304    1.4910    0.0000 C   0  0  1  0  0  0  0  0  0  0  0  0
   -2.2202    0.1172    0.0000 C   0  0  2  0  0  0  0  0  0  0  0  0
    1.0352    3.2685    0.0000 C   0  0  0  0  0  0  0  0  0  0  0  0
   -0.3386    2.8583    0.0000 C   0  0  0  0  0  0  0  0  0  0  0  0
    0.8659   -1.1069    0.0000 C   0  0  0  0  0  0  0  0  0  0  0  0
    2.2398   -0.6967    0.0000 C   0  0  0  0  0  0  0  0  0  0  0  0
   -2.8257    0.6901    0.0000 N   0  3  0  0  0  0  0  0  0  0  0  0
   -2.0444    1.1720    0.0000 C   0  0  0  0  0  0  0  0  0  0  0  0
   -1.9467    0.7813    0.0000 C   0  0  0  0  0  0  0  0  0  0  0  0
    0.2214    3.4638    0.0000 C   0  0  0  0  0  0  0  0  0  0  0  0
    1.6668   -1.2891    0.0000 C   0  0  0  0  0  0  0  0  0  0  0  0
   -3.1057   -0.0846    0.0000 C   0  0  0  0  0  0  0  0  0  0  0  0
   -3.4899    1.1980    0.0000 C   0  0  0  0  0  0  0  0  0  0  0  0
   -3.9391   -0.0586    0.0000 C   0  0  0  0  0  0  0  0  0  0  0  0
   -4.1735    0.7357    0.0000 C   0  0  0  0  0  0  0  0  0  0  0  0
  1  2  2  0  0  0  0
  2  3  1  0  0  0  0
  2  4  1  0  0  0  0
  5  3  1  1  0  0  0
  4  6  1  0  0  0  0
  4  7  1  0  0  0  0
  4  8  1  0  0  0  0
  5  9  1  0  0  0  0
  5 10  1  0  0  0  0
  7 11  2  0  0  0  0
  7 12  1  0  0  0  0
  8 13  2  0  0  0  0
  8 14  1  0  0  0  0
  9 15  1  0  0  0  0
 10 16  1  0  0  0  0
 11 17  1  0  0  0  0
 12 18  2  0  0  0  0
 13 19  1  0  0  0  0
 14 20  2  0  0  0  0
 15 21  1  6  0  0  0
 15 22  1  0  0  0  0
 16 23  1  0  0  0  0
 17 24  2  0  0  0  0
 19 25  2  0  0  0  0
 21 26  1  0  0  0  0
 21 27  1  0  0  0  0
 26 28  1  0  0  0  0
 27 29  1  0  0  0  0
 16 21  1  6  0  0  0
 18 24  1  0  0  0  0
 20 25  1  0  0  0  0
 22 23  1  0  0  0  0
 28 29  1  0  0  0  0
M  CHG  1  21   1
M  END

>  <name>
Trospium

>  <ROTATABLE_BONDCOUNT>
5

>  <HBDScore>
0.8333333333333334

>  <dipole>
19.57

>  <logD>
-0.50

>  <MPOScore>
5.601061904761905

>  <logDScore>
1.0

>  <MW>
392.518

>  <charge_dist(7.4)>
-0.00

>  <CNS>
FALSE

>  <ArRings>
2

>  <HBD>
1

>  <BALABAN_INDEX>
1.18

>  <bpKa>
-4.53

>  <TPSAScore>
1.0

>  <MWScore>
0.7677285714285716

>  <bpKaScore>
1.0

>  <logPScore>
1.0

>  <MPO_area>
87.35

>  <TPSA>
46.53

>  <logP>
-0.50

$$$$

  Mrv1722703221715202D          

 30 34  0  0  1  0            999 V2000
    0.0000    0.0000    0.0000 F   0  0  0  0  0  0  0  0  0  0  0  0
   -0.5581   -0.6165    0.0000 C   0  0  0  0  0  0  0  0  0  0  0  0
   -0.2985   -1.3952    0.0000 C   0  0  0  0  0  0  0  0  0  0  0  0
   -1.3757   -0.4478    0.0000 C   0  0  0  0  0  0  0  0  0  0  0  0
   -0.8566   -2.0117    0.0000 N   0  0  0  0  0  0  0  0  0  0  0  0
    0.5062   -1.5509    0.0000 N   0  0  0  0  0  0  0  0  0  0  0  0
   -1.9338   -1.0642    0.0000 C   0  0  0  0  0  0  0  0  0  0  0  0
   -1.6742   -1.8430    0.0000 C   0  0  0  0  0  0  0  0  0  0  0  0
    0.8436   -2.2972    0.0000 C   0  0  0  0  0  0  0  0  0  0  0  0
    1.1096   -0.9864    0.0000 C   0  0  0  0  0  0  0  0  0  0  0  0
   -2.7514   -0.8955    0.0000 C   0  0  0  0  0  0  0  0  0  0  0  0
   -2.2323   -2.4595    0.0000 N   0  0  0  0  0  0  0  0  0  0  0  0
    1.6612   -2.1998    0.0000 C   0  0  1  0  0  0  0  0  0  0  0  0
    1.8235   -1.3887    0.0000 C   0  0  2  0  0  0  0  0  0  0  0  0
   -3.0240   -0.1038    0.0000 O   0  0  0  0  0  0  0  0  0  0  0  0
   -3.3095   -1.5120    0.0000 C   0  0  0  0  0  0  0  0  0  0  0  0
   -1.9727   -3.2381    0.0000 C   0  0  0  0  0  0  0  0  0  0  0  0
   -3.0500   -2.2907    0.0000 C   0  0  0  0  0  0  0  0  0  0  0  0
    2.4399   -1.9273    0.0000 C   0  0  2  0  0  0  0  0  0  0  0  0
   -4.1272   -1.3433    0.0000 C   0  0  0  0  0  0  0  0  0  0  0  0
   -1.1681   -3.3939    0.0000 C   0  0  0  0  0  0  0  0  0  0  0  0
   -2.5308   -3.8546    0.0000 C   0  0  0  0  0  0  0  0  0  0  0  0
    3.2447   -2.0831    0.0000 N   0  0  0  0  0  0  0  0  0  0  0  0
   -4.6853   -1.9597    0.0000 O   0  0  0  0  0  0  0  0  0  0  0  0
   -4.3997   -0.5516    0.0000 O   0  0  0  0  0  0  0  0  0  0  0  0
   -0.6230   -2.7644    0.0000 F   0  0  0  0  0  0  0  0  0  0  0  0
   -0.9085   -4.1726    0.0000 C   0  0  0  0  0  0  0  0  0  0  0  0
   -2.2712   -4.6333    0.0000 C   0  0  0  0  0  0  0  0  0  0  0  0
   -1.4666   -4.7891    0.0000 C   0  0  0  0  0  0  0  0  0  0  0  0
   -1.2070   -5.5678    0.0000 F   0  0  0  0  0  0  0  0  0  0  0  0
  1  2  1  0  0  0  0
  2  3  2  0  0  0  0
  2  4  1  0  0  0  0
  3  5  1  0  0  0  0
  3  6  1  0  0  0  0
  4  7  2  0  0  0  0
  5  8  2  0  0  0  0
  6  9  1  0  0  0  0
  6 10  1  0  0  0  0
  7 11  1  0  0  0  0
  8 12  1  0  0  0  0
 13  9  1  1  0  0  0
 14 10  1  1  0  0  0
 11 15  2  0  0  0  0
 11 16  1  0  0  0  0
 12 17  1  0  0  0  0
 12 18  1  0  0  0  0
 13 19  1  0  0  0  0
 16 20  1  0  0  0  0
 17 21  2  0  0  0  0
 17 22  1  0  0  0  0
 19 23  1  6  0  0  0
 20 24  2  0  0  0  0
 20 25  1  0  0  0  0
 21 26  1  0  0  0  0
 21 27  1  0  0  0  0
 22 28  2  0  0  0  0
 27 29  2  0  0  0  0
 29 30  1  0  0  0  0
  7  8  1  0  0  0  0
 13 14  1  0  0  0  0
 14 19  1  0  0  0  0
 16 18  2  0  0  0  0
 28 29  1  0  0  0  0
M  END

>  <name>
Trovafloxacin

>  <ROTATABLE_BONDCOUNT>
3

>  <HBDScore>
0.5

>  <dipole>
11.41

>  <logD>
0.14

>  <MPOScore>
4.052095238095238

>  <logDScore>
1.0

>  <MW>
416.360

>  <charge_dist(7.4)>
0.01

>  <CNS>
FALSE

>  <ArRings>
3

>  <HBD>
2

>  <BALABAN_INDEX>
1.21

>  <bpKa>
9.44

>  <TPSAScore>
0.6746666666666665

>  <MWScore>
0.5974285714285714

>  <bpKaScore>
0.28000000000000025

>  <logPScore>
1.0

>  <MPO_area>
46.61

>  <TPSA>
99.76

>  <logP>
0.14

$$$$

  Mrv1722703221715202D          

 15 15  0  0  0  0            999 V2000
    0.0000    0.0000    0.0000 Cl  0  0  0  0  0  0  0  0  0  0  0  0
    0.4254   -0.7068    0.0000 C   0  0  0  0  0  0  0  0  0  0  0  0
    1.2500   -0.6872    0.0000 C   0  0  0  0  0  0  0  0  0  0  0  0
    1.6755   -1.3940    0.0000 N   0  0  0  0  0  0  0  0  0  0  0  0
    2.5001   -1.3744    0.0000 C   0  0  0  0  0  0  0  0  0  0  0  0
    1.2697   -2.1140    0.0000 C   0  0  0  0  0  0  0  0  0  0  0  0
    2.9255   -2.0813    0.0000 C   0  0  0  0  0  0  0  0  0  0  0  0
    2.8928   -0.6414    0.0000 C   0  0  0  0  0  0  0  0  0  0  0  0
    0.4320   -2.1205    0.0000 C   0  0  0  0  0  0  0  0  0  0  0  0
    2.5198   -2.8012    0.0000 O   0  0  0  0  0  0  0  0  0  0  0  0
    3.7502   -2.0616    0.0000 N   0  0  0  0  0  0  0  0  0  0  0  0
    3.7174   -0.6218    0.0000 N   0  0  0  0  0  0  0  0  0  0  0  0
    0.0262   -2.8405    0.0000 Cl  0  0  0  0  0  0  0  0  0  0  0  0
    4.1429   -1.3286    0.0000 C   0  0  0  0  0  0  0  0  0  0  0  0
    4.9675   -1.3090    0.0000 O   0  0  0  0  0  0  0  0  0  0  0  0
  1  2  1  0  0  0  0
  2  3  1  0  0  0  0
  3  4  1  0  0  0  0
  4  5  1  0  0  0  0
  4  6  1  0  0  0  0
  5  7  1  0  0  0  0
  5  8  2  0  0  0  0
  6  9  1  0  0  0  0
  7 10  2  0  0  0  0
  7 11  1  0  0  0  0
  8 12  1  0  0  0  0
  9 13  1  0  0  0  0
 11 14  1  0  0  0  0
 14 15  2  0  0  0  0
 12 14  1  0  0  0  0
M  END

>  <name>
Uracil_mustard

>  <ROTATABLE_BONDCOUNT>
5

>  <HBDScore>
0.5

>  <dipole>
6.84

>  <logD>
0.39

>  <MPOScore>
5.5

>  <logDScore>
1.0

>  <MW>
252.10

>  <charge_dist(7.4)>
-0.04

>  <CNS>
FALSE

>  <ArRings>
1

>  <HBD>
2

>  <BALABAN_INDEX>
2.33

>  <bpKa>
-4.39

>  <TPSAScore>
1.0

>  <MWScore>
1.0

>  <bpKaScore>
1.0

>  <logPScore>
1.0

>  <MPO_area>
83.33

>  <TPSA>
61.44

>  <logP>
0.41

$$$$

  Mrv1722703221715202D          

 32 34  0  0  0  0            999 V2000
    0.0000    0.0000    0.0000 O   0  0  0  0  0  0  0  0  0  0  0  0
   -0.7159    0.4360    0.0000 C   0  0  0  0  0  0  0  0  0  0  0  0
   -1.4449    0.0456    0.0000 O   0  0  0  0  0  0  0  0  0  0  0  0
   -0.7029    1.2692    0.0000 C   0  0  1  0  0  0  0  0  0  0  0  0
    0.0130    1.6727    0.0000 N   0  0  0  0  0  0  0  0  0  0  0  0
   -1.4189    1.7052    0.0000 C   0  0  0  0  0  0  0  0  0  0  0  0
    0.0260    2.5058    0.0000 C   0  0  0  0  0  0  0  0  0  0  0  0
    0.7159    1.2496    0.0000 C   0  0  0  0  0  0  0  0  0  0  0  0
   -2.1478    1.3147    0.0000 C   0  0  0  0  0  0  0  0  0  0  0  0
   -1.4058    2.5383    0.0000 C   0  0  0  0  0  0  0  0  0  0  0  0
    0.7420    2.9093    0.0000 O   0  0  0  0  0  0  0  0  0  0  0  0
   -0.6899    2.9418    0.0000 C   0  0  0  0  0  0  0  0  0  0  0  0
    1.4319    1.6531    0.0000 C   0  0  0  0  0  0  0  0  0  0  0  0
   -0.6769    3.7750    0.0000 C   0  0  0  0  0  0  0  0  0  0  0  0
    1.4449    2.4863    0.0000 C   0  0  0  0  0  0  0  0  0  0  0  0
    2.1348    1.2301    0.0000 C   0  0  0  0  0  0  0  0  0  0  0  0
   -1.3928    4.2110    0.0000 C   0  0  0  0  0  0  0  0  0  0  0  0
    2.1608    2.8898    0.0000 C   0  0  0  0  0  0  0  0  0  0  0  0
    2.8507    1.6336    0.0000 C   0  0  0  0  0  0  0  0  0  0  0  0
   -1.3798    5.0441    0.0000 C   0  0  0  0  0  0  0  0  0  0  0  0
    2.8637    2.4667    0.0000 C   0  0  0  0  0  0  0  0  0  0  0  0
    3.5797    2.8702    0.0000 C   0  0  0  0  0  0  0  0  0  0  0  0
    4.2826    2.4472    0.0000 C   0  0  0  0  0  0  0  0  0  0  0  0
    3.5927    3.7034    0.0000 C   0  0  0  0  0  0  0  0  0  0  0  0
    4.2566    1.6271    0.0000 C   0  0  0  0  0  0  0  0  0  0  0  0
    4.9986    2.8507    0.0000 C   0  0  0  0  0  0  0  0  0  0  0  0
    4.3086    4.1069    0.0000 C   0  0  0  0  0  0  0  0  0  0  0  0
    3.5732    1.1650    0.0000 N   0  0  0  0  0  0  0  0  0  0  0  0
    4.9074    1.1325    0.0000 N   0  0  0  0  0  0  0  0  0  0  0  0
    5.0116    3.6838    0.0000 C   0  0  0  0  0  0  0  0  0  0  0  0
    3.8075    0.3775    0.0000 N   0  0  0  0  0  0  0  0  0  0  0  0
    4.6275    0.3579    0.0000 N   0  0  0  0  0  2  0  0  0  0  0  0
  1  2  2  0  0  0  0
  2  3  1  0  0  0  0
  2  4  1  0  0  0  0
  4  5  1  6  0  0  0
  4  6  1  0  0  0  0
  5  7  1  0  0  0  0
  5  8  1  0  0  0  0
  6  9  1  0  0  0  0
  6 10  1  0  0  0  0
  7 11  2  0  0  0  0
  7 12  1  0  0  0  0
  8 13  1  0  0  0  0
 12 14  1  0  0  0  0
 13 15  2  0  0  0  0
 13 16  1  0  0  0  0
 14 17  1  0  0  0  0
 15 18  1  0  0  0  0
 16 19  2  0  0  0  0
 17 20  1  0  0  0  0
 18 21  2  0  0  0  0
 21 22  1  0  0  0  0
 22 23  2  0  0  0  0
 22 24  1  0  0  0  0
 23 25  1  0  0  0  0
 23 26  1  0  0  0  0
 24 27  2  0  0  0  0
 25 28  1  0  0  0  0
 25 29  2  0  0  0  0
 26 30  2  0  0  0  0
 28 31  2  0  0  0  0
 29 32  1  0  0  0  0
 19 21  1  0  0  0  0
 27 30  1  0  0  0  0
 31 32  1  0  0  0  0
M  RAD  1  32   2
M  END

>  <name>
Valsartan

>  <ROTATABLE_BONDCOUNT>
10

>  <HBDScore>
0.8333333333333334

>  <logD>
1.46

>  <MPOScore>
3.9670476190476194

>  <logDScore>
1.0

>  <MW>
434.520

>  <charge_dist(7.4)>
-1.00

>  <CNS>
FALSE

>  <ArRings>
3

>  <HBD>
1

>  <BALABAN_INDEX>
1.49

>  <bpKa>
-0.71

>  <TPSAScore>
0.361

>  <MWScore>
0.46771428571428586

>  <bpKaScore>
1.0

>  <logPScore>
0.30500000000000016

>  <MPO_area>
46.78

>  <TPSA>
109.17

>  <logP>
4.39

$$$$

  Mrv1722703221715202D          

 30 33  0  0  0  0            999 V2000
    0.0000    0.0000    0.0000 Br  0  0  0  0  0  0  0  0  0  0  0  0
    0.8168    0.1167    0.0000 C   0  0  0  0  0  0  0  0  0  0  0  0
    1.3159   -0.5380    0.0000 C   0  0  0  0  0  0  0  0  0  0  0  0
    1.1279    0.8881    0.0000 C   0  0  0  0  0  0  0  0  0  0  0  0
    2.1326   -0.4213    0.0000 C   0  0  0  0  0  0  0  0  0  0  0  0
    1.9446    1.0047    0.0000 C   0  0  0  0  0  0  0  0  0  0  0  0
    2.6317   -1.0760    0.0000 F   0  0  0  0  0  0  0  0  0  0  0  0
    2.4437    0.3500    0.0000 C   0  0  0  0  0  0  0  0  0  0  0  0
    3.2605    0.4667    0.0000 N   0  0  0  0  0  0  0  0  0  0  0  0
    3.7596   -0.1880    0.0000 C   0  0  0  0  0  0  0  0  0  0  0  0
    3.4355   -0.9464    0.0000 N   0  0  0  0  0  0  0  0  0  0  0  0
    4.5763   -0.0713    0.0000 C   0  0  0  0  0  0  0  0  0  0  0  0
    3.9346   -1.6011    0.0000 C   0  0  0  0  0  0  0  0  0  0  0  0
    5.0755   -0.7260    0.0000 C   0  0  0  0  0  0  0  0  0  0  0  0
    4.8875    0.7001    0.0000 C   0  0  0  0  0  0  0  0  0  0  0  0
    4.7514   -1.4844    0.0000 N   0  0  0  0  0  0  0  0  0  0  0  0
    5.8922   -0.6093    0.0000 C   0  0  0  0  0  0  0  0  0  0  0  0
    5.7042    0.8168    0.0000 C   0  0  0  0  0  0  0  0  0  0  0  0
    6.2034    0.1620    0.0000 C   0  0  0  0  0  0  0  0  0  0  0  0
    6.0154    1.5881    0.0000 O   0  0  0  0  0  0  0  0  0  0  0  0
    7.0201    0.2787    0.0000 O   0  0  0  0  0  0  0  0  0  0  0  0
    6.8321    1.7048    0.0000 C   0  0  0  0  0  0  0  0  0  0  0  0
    7.5192   -0.3760    0.0000 C   0  0  0  0  0  0  0  0  0  0  0  0
    8.3360   -0.2593    0.0000 C   0  0  0  0  0  0  0  0  0  0  0  0
    8.8351   -0.9140    0.0000 C   0  0  0  0  0  0  0  0  0  0  0  0
    8.6471    0.5121    0.0000 C   0  0  0  0  0  0  0  0  0  0  0  0
    9.6518   -0.7973    0.0000 C   0  0  0  0  0  0  0  0  0  0  0  0
    9.4639    0.6288    0.0000 C   0  0  0  0  0  0  0  0  0  0  0  0
    9.9630   -0.0259    0.0000 N   0  0  0  0  0  0  0  0  0  0  0  0
   10.7797    0.0907    0.0000 C   0  0  0  0  0  0  0  0  0  0  0  0
  1  2  1  0  0  0  0
  2  3  2  0  0  0  0
  2  4  1  0  0  0  0
  3  5  1  0  0  0  0
  4  6  2  0  0  0  0
  5  7  1  0  0  0  0
  5  8  2  0  0  0  0
  8  9  1  0  0  0  0
  9 10  1  0  0  0  0
 10 11  2  0  0  0  0
 10 12  1  0  0  0  0
 11 13  1  0  0  0  0
 12 14  2  0  0  0  0
 12 15  1  0  0  0  0
 13 16  2  0  0  0  0
 14 17  1  0  0  0  0
 15 18  2  0  0  0  0
 17 19  2  0  0  0  0
 18 20  1  0  0  0  0
 19 21  1  0  0  0  0
 20 22  1  0  0  0  0
 21 23  1  0  0  0  0
 23 24  1  0  0  0  0
 24 25  1  0  0  0  0
 24 26  1  0  0  0  0
 25 27  1  0  0  0  0
 26 28  1  0  0  0  0
 27 29  1  0  0  0  0
 29 30  1  0  0  0  0
  6  8  1  0  0  0  0
 14 16  1  0  0  0  0
 18 19  1  0  0  0  0
 28 29  1  0  0  0  0
M  END

>  <name>
Vandetanib

>  <ROTATABLE_BONDCOUNT>
6

>  <HBDScore>
0.8333333333333334

>  <dipole>
5.51

>  <logD>
2.81

>  <MPOScore>
3.2693190476190472

>  <logDScore>
0.595

>  <MW>
475.362

>  <charge_dist(7.4)>
0.98

>  <CNS>
FALSE

>  <ArRings>
3

>  <HBD>
1

>  <BALABAN_INDEX>
1.19

>  <bpKa>
9.13

>  <TPSAScore>
1.0

>  <MWScore>
0.1759857142857142

>  <bpKaScore>
0.4349999999999996

>  <logPScore>
0.22999999999999998

>  <MPO_area>
31.74

>  <TPSA>
59.51

>  <logP>
4.54

$$$$

  Mrv1722703221715202D          

 33 36  0  0  0  0            999 V2000
    0.0000    0.0000    0.0000 Cl  0  0  0  0  0  0  0  0  0  0  0  0
   -0.5617    0.6134    0.0000 C   0  0  0  0  0  0  0  0  0  0  0  0
   -1.3688    0.4455    0.0000 C   0  0  0  0  0  0  0  0  0  0  0  0
   -0.3164    1.4011    0.0000 C   0  0  0  0  0  0  0  0  0  0  0  0
   -1.9240    1.0588    0.0000 C   0  0  0  0  0  0  0  0  0  0  0  0
   -0.8780    2.0144    0.0000 C   0  0  0  0  0  0  0  0  0  0  0  0
   -1.6787    1.8465    0.0000 C   0  0  0  0  0  0  0  0  0  0  0  0
   -2.2404    2.4599    0.0000 C   0  0  0  0  0  0  0  0  0  0  0  0
   -1.9950    3.2476    0.0000 C   0  0  0  0  0  0  0  0  0  0  0  0
   -3.0474    2.2920    0.0000 C   0  0  0  0  0  0  0  0  0  0  0  0
   -2.5502    3.8609    0.0000 N   0  0  0  0  0  0  0  0  0  0  0  0
   -3.6026    2.9054    0.0000 C   0  0  0  0  0  0  0  0  0  0  0  0
   -3.3573    3.6931    0.0000 C   0  0  0  0  0  0  0  0  0  0  0  0
   -4.4291    2.9054    0.0000 C   0  0  0  0  0  0  0  0  0  0  0  0
   -4.0288    4.1773    0.0000 N   0  0  0  0  0  0  0  0  0  0  0  0
   -4.9133    2.2468    0.0000 C   0  0  0  0  0  0  0  0  0  0  0  0
   -4.6938    3.6931    0.0000 C   0  0  0  0  0  0  0  0  0  0  0  0
   -4.5840    1.5043    0.0000 O   0  0  0  0  0  0  0  0  0  0  0  0
   -5.7333    2.3372    0.0000 C   0  0  0  0  0  0  0  0  0  0  0  0
   -6.2175    1.6787    0.0000 C   0  0  0  0  0  0  0  0  0  0  0  0
   -6.0754    3.0926    0.0000 C   0  0  0  0  0  0  0  0  0  0  0  0
   -5.8882    0.9362    0.0000 F   0  0  0  0  0  0  0  0  0  0  0  0
   -7.0375    1.7691    0.0000 C   0  0  0  0  0  0  0  0  0  0  0  0
   -5.6042    3.7641    0.0000 F   0  0  0  0  0  0  0  0  0  0  0  0
   -6.8954    3.1830    0.0000 C   0  0  0  0  0  0  0  0  0  0  0  0
   -7.5217    1.1105    0.0000 N   0  0  0  0  0  0  0  0  0  0  0  0
   -7.3797    2.5244    0.0000 C   0  0  0  0  0  0  0  0  0  0  0  0
   -8.3416    1.2009    0.0000 S   0  0  0  0  0  0  0  0  0  0  0  0
   -8.2642    2.0209    0.0000 O   0  0  0  0  0  0  0  0  0  0  0  0
   -8.4321    0.3939    0.0000 O   0  0  0  0  0  0  0  0  0  0  0  0
   -9.1616    1.2913    0.0000 C   0  0  0  0  0  0  0  0  0  0  0  0
   -9.5038    2.0467    0.0000 C   0  0  0  0  0  0  0  0  0  0  0  0
  -10.3238    2.1370    0.0000 C   0  0  0  0  0  0  0  0  0  0  0  0
  1  2  1  0  0  0  0
  2  3  2  0  0  0  0
  2  4  1  0  0  0  0
  3  5  1  0  0  0  0
  4  6  2  0  0  0  0
  5  7  2  0  0  0  0
  7  8  1  0  0  0  0
  8  9  2  0  0  0  0
  8 10  1  0  0  0  0
  9 11  1  0  0  0  0
 10 12  2  0  0  0  0
 11 13  2  0  0  0  0
 12 14  1  0  0  0  0
 13 15  1  0  0  0  0
 14 16  1  0  0  0  0
 14 17  2  0  0  0  0
 16 18  2  0  0  0  0
 16 19  1  0  0  0  0
 19 20  2  0  0  0  0
 19 21  1  0  0  0  0
 20 22  1  0  0  0  0
 20 23  1  0  0  0  0
 21 24  1  0  0  0  0
 21 25  2  0  0  0  0
 23 26  1  0  0  0  0
 23 27  2  0  0  0  0
 26 28  1  0  0  0  0
 28 29  2  0  0  0  0
 28 30  2  0  0  0  0
 28 31  1  0  0  0  0
 31 32  1  0  0  0  0
 32 33  1  0  0  0  0
  6  7  1  0  0  0  0
 12 13  1  0  0  0  0
 15 17  1  0  0  0  0
 25 27  1  0  0  0  0
M  END

>  <name>
Vemurafenib

>  <ROTATABLE_BONDCOUNT>
6

>  <HBDScore>
0.5

>  <dipole>
9.38

>  <logD>
4.61

>  <MPOScore>
2.698

>  <logDScore>
0.0

>  <MW>
489.92

>  <charge_dist(7.4)>
-0.03

>  <CNS>
FALSE

>  <ArRings>
4

>  <HBD>
2

>  <BALABAN_INDEX>
1.38

>  <bpKa>
2.3

>  <TPSAScore>
0.9359999999999999

>  <MWScore>
0.07199999999999995

>  <bpKaScore>
1.0

>  <logPScore>
0.18999999999999995

>  <MPO_area>
25.21

>  <TPSA>
91.92

>  <logP>
4.62

$$$$

  Mrv1722703221715202D          

 27 29  0  0  0  0            999 V2000
    0.0000    0.0000    0.0000 Cl  0  0  0  0  0  0  0  0  0  0  0  0
   -0.1230   -0.8157    0.0000 C   0  0  0  0  0  0  0  0  0  0  0  0
    0.5244   -1.3207    0.0000 C   0  0  0  0  0  0  0  0  0  0  0  0
   -0.8999   -1.1200    0.0000 C   0  0  0  0  0  0  0  0  0  0  0  0
    1.2884   -1.0034    0.0000 C   0  0  0  0  0  0  0  0  0  0  0  0
    0.4014   -2.1364    0.0000 C   0  0  0  0  0  0  0  0  0  0  0  0
   -1.0229   -1.9358    0.0000 C   0  0  0  0  0  0  0  0  0  0  0  0
    1.3984   -0.1748    0.0000 O   0  0  0  0  0  0  0  0  0  0  0  0
    1.9358   -1.5085    0.0000 N   0  0  0  0  0  0  0  0  0  0  0  0
   -0.3755   -2.4407    0.0000 C   0  0  0  0  0  0  0  0  0  0  0  0
   -1.7998   -2.2400    0.0000 S   0  0  0  0  0  0  0  0  0  0  0  0
    2.6997   -1.1912    0.0000 C   0  0  0  0  0  0  0  0  0  0  0  0
   -1.4955   -3.0039    0.0000 O   0  0  0  0  0  0  0  0  0  0  0  0
   -2.1170   -1.4631    0.0000 O   0  0  0  0  0  0  0  0  0  0  0  0
   -2.5766   -2.5443    0.0000 C   0  0  0  0  0  0  0  0  0  0  0  0
    3.3471   -1.6962    0.0000 C   0  0  0  0  0  0  0  0  0  0  0  0
    2.8097   -0.3626    0.0000 C   0  0  0  0  0  0  0  0  0  0  0  0
    4.1110   -1.3790    0.0000 C   0  0  0  0  0  0  0  0  0  0  0  0
    3.5736   -0.0453    0.0000 C   0  0  0  0  0  0  0  0  0  0  0  0
    4.2210   -0.5503    0.0000 C   0  0  0  0  0  0  0  0  0  0  0  0
    4.7584   -1.8839    0.0000 C   0  0  0  0  0  0  0  0  0  0  0  0
    4.9850   -0.2331    0.0000 Cl  0  0  0  0  0  0  0  0  0  0  0  0
    5.5224   -1.5667    0.0000 N   0  0  0  0  0  0  0  0  0  0  0  0
    4.6354   -2.6997    0.0000 C   0  0  0  0  0  0  0  0  0  0  0  0
    6.1698   -2.0717    0.0000 C   0  0  0  0  0  0  0  0  0  0  0  0
    5.2828   -3.2046    0.0000 C   0  0  0  0  0  0  0  0  0  0  0  0
    6.0467   -2.8874    0.0000 C   0  0  0  0  0  0  0  0  0  0  0  0
  1  2  1  0  0  0  0
  2  3  2  0  0  0  0
  2  4  1  0  0  0  0
  3  5  1  0  0  0  0
  3  6  1  0  0  0  0
  4  7  2  0  0  0  0
  5  8  2  0  0  0  0
  5  9  1  0  0  0  0
  6 10  2  0  0  0  0
  7 11  1  0  0  0  0
  9 12  1  0  0  0  0
 11 13  2  0  0  0  0
 11 14  2  0  0  0  0
 11 15  1  0  0  0  0
 12 16  2  0  0  0  0
 12 17  1  0  0  0  0
 16 18  1  0  0  0  0
 17 19  2  0  0  0  0
 18 20  2  0  0  0  0
 18 21  1  0  0  0  0
 20 22  1  0  0  0  0
 21 23  2  0  0  0  0
 21 24  1  0  0  0  0
 23 25  1  0  0  0  0
 24 26  2  0  0  0  0
 25 27  2  0  0  0  0
  7 10  1  0  0  0  0
 19 20  1  0  0  0  0
 26 27  1  0  0  0  0
M  END

>  <name>
Vismodegib

>  <ROTATABLE_BONDCOUNT>
4

>  <HBDScore>
0.8333333333333334

>  <dipole>
5.67

>  <logD>
3.93

>  <MPOScore>
3.965547619047619

>  <logDScore>
0.03499999999999992

>  <MW>
421.29

>  <charge_dist(7.4)>
0.00

>  <CNS>
FALSE

>  <ArRings>
3

>  <HBD>
1

>  <BALABAN_INDEX>
1.47

>  <bpKa>
3.7

>  <TPSAScore>
1.0

>  <MWScore>
0.5622142857142856

>  <bpKaScore>
1.0

>  <logPScore>
0.5349999999999999

>  <MPO_area>
44.27

>  <TPSA>
76.13

>  <logP>
3.93

$$$$

  Mrv1722703221715202D          

 36 40  0  0  0  0            999 V2000
    0.0000    0.0000    0.0000 F   0  0  0  0  0  0  0  0  0  0  0  0
    0.6561    0.5002    0.0000 C   0  0  0  0  0  0  0  0  0  0  0  0
    1.4096    0.1754    0.0000 C   0  0  0  0  0  0  0  0  0  0  0  0
    0.5521    1.3316    0.0000 C   0  0  0  0  0  0  0  0  0  0  0  0
    2.0657    0.6755    0.0000 C   0  0  0  0  0  0  0  0  0  0  0  0
    1.2082    1.8318    0.0000 C   0  0  0  0  0  0  0  0  0  0  0  0
    2.8192    0.3508    0.0000 C   0  0  0  0  0  0  0  0  0  0  0  0
    1.9618    1.5070    0.0000 C   0  0  0  0  0  0  0  0  0  0  0  0
    3.4753    0.8510    0.0000 C   0  0  0  0  0  0  0  0  0  0  0  0
    2.9102   -0.4677    0.0000 C   0  0  0  0  0  0  0  0  0  0  0  0
    4.2288    0.5261    0.0000 N   0  0  0  0  0  0  0  0  0  0  0  0
    3.6637   -0.7925    0.0000 C   0  0  0  0  0  0  0  0  0  0  0  0
    4.3198   -0.2923    0.0000 C   0  0  0  0  0  0  0  0  0  0  0  0
    5.0733   -0.6171    0.0000 C   0  0  0  0  0  0  0  0  0  0  0  0
    5.7294   -0.1169    0.0000 C   0  0  0  0  0  0  0  0  0  0  0  0
    6.4829   -0.4417    0.0000 C   0  0  2  0  0  0  0  0  0  0  0  0
    7.1390    0.0585    0.0000 C   0  0  2  0  0  0  0  0  0  0  0  0
    6.5738   -1.2602    0.0000 C   0  0  2  0  0  0  0  0  0  0  0  0
    7.8925   -0.2663    0.0000 C   0  0  2  0  0  0  0  0  0  0  0  0
    7.0350    0.8899    0.0000 C   0  0  0  0  0  0  0  0  0  0  0  0
    7.3274   -1.5850    0.0000 C   0  0  2  0  0  0  0  0  0  0  0  0
    6.0217   -1.8773    0.0000 C   0  0  1  0  0  0  0  0  0  0  0  0
    8.5486    0.2339    0.0000 C   0  0  0  0  0  0  0  0  0  0  0  0
    7.9834   -1.0848    0.0000 C   0  0  0  0  0  0  0  0  0  0  0  0
    7.6911    1.3901    0.0000 C   0  0  0  0  0  0  0  0  0  0  0  0
    7.2429   -2.4035    0.0000 C   0  0  0  0  0  0  0  0  0  0  0  0
    6.4374   -2.5853    0.0000 O   0  0  0  0  0  0  0  0  0  0  0  0
    5.1902   -1.7929    0.0000 C   0  0  0  0  0  0  0  0  0  0  0  0
    8.4446    1.0653    0.0000 C   0  0  2  0  0  0  0  0  0  0  0  0
    7.8600   -2.9426    0.0000 O   0  0  0  0  0  0  0  0  0  0  0  0
    9.1007    1.5655    0.0000 N   0  0  0  0  0  0  0  0  0  0  0  0
    9.8542    1.2407    0.0000 C   0  0  0  0  0  0  0  0  0  0  0  0
    9.9452    0.4222    0.0000 O   0  0  0  0  0  0  0  0  0  0  0  0
   10.5103    1.7409    0.0000 O   0  0  0  0  0  0  0  0  0  0  0  0
   11.2638    1.4161    0.0000 C   0  0  0  0  0  0  0  0  0  0  0  0
   11.9199    1.9163    0.0000 C   0  0  0  0  0  0  0  0  0  0  0  0
  1  2  1  0  0  0  0
  2  3  2  0  0  0  0
  2  4  1  0  0  0  0
  3  5  1  0  0  0  0
  4  6  2  0  0  0  0
  5  7  1  0  0  0  0
  5  8  2  0  0  0  0
  7  9  2  0  0  0  0
  7 10  1  0  0  0  0
  9 11  1  0  0  0  0
 10 12  2  0  0  0  0
 11 13  2  0  0  0  0
 13 14  1  0  0  0  0
 14 15  2  0  0  0  0
 16 15  1  6  0  0  0
 16 17  1  0  0  0  0
 18 16  1  6  0  0  0
 17 19  1  0  0  0  0
 17 20  1  1  0  0  0
 18 21  1  0  0  0  0
 18 22  1  0  0  0  0
 19 23  1  6  0  0  0
 19 24  1  0  0  0  0
 20 25  1  0  0  0  0
 21 26  1  0  0  0  0
 22 27  1  0  0  0  0
 22 28  1  1  0  0  0
 23 29  1  0  0  0  0
 26 30  2  0  0  0  0
 29 31  1  6  0  0  0
 31 32  1  0  0  0  0
 32 33  2  0  0  0  0
 32 34  1  0  0  0  0
 34 35  1  0  0  0  0
 35 36  1  0  0  0  0
  6  8  1  0  0  0  0
 12 13  1  0  0  0  0
 21 24  1  6  0  0  0
 25 29  1  0  0  0  0
 26 27  1  0  0  0  0
M  END

>  <name>
Vorapaxar

>  <ROTATABLE_BONDCOUNT>
6

>  <HBDScore>
0.8333333333333334

>  <dipole>
6.91

>  <logD>
5.04

>  <MPOScore>
2.886254761904762

>  <logDScore>
0.0

>  <MW>
492.591

>  <charge_dist(7.4)>
0.00

>  <CNS>
FALSE

>  <ArRings>
2

>  <HBD>
1

>  <BALABAN_INDEX>
1.05

>  <bpKa>
4.32

>  <TPSAScore>
1.0

>  <MWScore>
0.052921428571428564

>  <bpKaScore>
1.0

>  <logPScore>
0.0

>  <MPO_area>
31.29

>  <TPSA>
77.52

>  <logP>
5.04

$$$$

  Mrv1722703221715202D          

 41 45  0  0  0  0            999 V2000
    0.0000    0.0000    0.0000 S   0  0  0  0  0  0  0  0  0  0  0  0
    0.1435   -0.8085    0.0000 O   0  0  0  0  0  0  0  0  0  0  0  0
   -0.1565    0.8215    0.0000 O   0  0  0  0  0  0  0  0  0  0  0  0
    0.8085    0.1565    0.0000 N   0  0  0  0  0  0  0  0  0  0  0  0
   -0.8215   -0.1435    0.0000 C   0  0  0  0  0  0  0  0  0  0  0  0
    1.3431   -0.4630    0.0000 C   0  0  0  0  0  0  0  0  0  0  0  0
   -1.1019   -0.9193    0.0000 C   0  0  0  0  0  0  0  0  0  0  0  0
   -1.3692    0.4890    0.0000 C   0  0  0  0  0  0  0  0  0  0  0  0
    1.0628   -1.2388    0.0000 O   0  0  0  0  0  0  0  0  0  0  0  0
    2.1517   -0.3064    0.0000 C   0  0  0  0  0  0  0  0  0  0  0  0
   -1.9235   -1.0628    0.0000 C   0  0  0  0  0  0  0  0  0  0  0  0
   -0.5673   -1.5388    0.0000 C   0  0  0  0  0  0  0  0  0  0  0  0
   -2.1908    0.3456    0.0000 C   0  0  0  0  0  0  0  0  0  0  0  0
    2.4190    0.4825    0.0000 C   0  0  0  0  0  0  0  0  0  0  0  0
    2.6863   -0.9258    0.0000 C   0  0  0  0  0  0  0  0  0  0  0  0
   -2.4712   -0.4303    0.0000 C   0  0  0  0  0  0  0  0  0  0  0  0
    3.2275    0.6390    0.0000 C   0  0  0  0  0  0  0  0  0  0  0  0
    3.4948   -0.7694    0.0000 C   0  0  0  0  0  0  0  0  0  0  0  0
    3.4948    1.4279    0.0000 O   0  0  0  0  0  0  0  0  0  0  0  0
    3.7622    0.0196    0.0000 C   0  0  0  0  0  0  0  0  0  0  0  0
    2.9471    2.0604    0.0000 C   0  0  0  0  0  0  0  0  0  0  0  0
    4.5707    0.1760    0.0000 C   0  0  0  0  0  0  0  0  0  0  0  0
    4.8380    0.9650    0.0000 C   0  0  0  0  0  0  0  0  0  0  0  0
    5.6270    1.2063    0.0000 C   0  0  0  0  0  0  0  0  0  0  0  0
    4.3620    1.6561    0.0000 C   0  0  0  0  0  0  0  0  0  0  0  0
    5.6400    2.0409    0.0000 C   0  0  0  0  0  0  0  0  0  0  0  0
    6.3246    0.7824    0.0000 C   0  0  0  0  0  0  0  0  0  0  0  0
    4.8576    2.3212    0.0000 N   0  0  0  0  0  0  0  0  0  0  0  0
    6.3572    2.4451    0.0000 C   0  0  0  0  0  0  0  0  0  0  0  0
    7.0418    1.1867    0.0000 C   0  0  0  0  0  0  0  0  0  0  0  0
    4.6163    3.1232    0.0000 C   0  0  0  0  0  0  0  0  0  0  0  0
    7.0549    2.0213    0.0000 C   0  0  0  0  0  0  0  0  0  0  0  0
    7.7395    0.7629    0.0000 N   0  0  0  0  0  0  0  0  0  0  0  0
    7.7134   -0.0587    0.0000 C   0  0  0  0  0  0  0  0  0  0  0  0
    6.9832   -0.4499    0.0000 O   0  0  0  0  0  0  0  0  0  0  0  0
    8.4111   -0.4825    0.0000 O   0  0  0  0  0  0  0  0  0  0  0  0
    8.3850   -1.3041    0.0000 C   0  0  0  0  0  0  0  0  0  0  0  0
    9.0371   -1.7996    0.0000 C   0  0  0  0  0  0  0  0  0  0  0  0
    7.6938   -1.7670    0.0000 C   0  0  0  0  0  0  0  0  0  0  0  0
    8.7566   -2.5755    0.0000 C   0  0  0  0  0  0  0  0  0  0  0  0
    7.9221   -2.5559    0.0000 C   0  0  0  0  0  0  0  0  0  0  0  0
  1  2  2  0  0  0  0
  1  3  2  0  0  0  0
  1  4  1  0  0  0  0
  1  5  1  0  0  0  0
  4  6  1  0  0  0  0
  5  7  2  0  0  0  0
  5  8  1  0  0  0  0
  6  9  2  0  0  0  0
  6 10  1  0  0  0  0
  7 11  1  0  0  0  0
  7 12  1  0  0  0  0
  8 13  2  0  0  0  0
 10 14  2  0  0  0  0
 10 15  1  0  0  0  0
 11 16  2  0  0  0  0
 14 17  1  0  0  0  0
 15 18  2  0  0  0  0
 17 19  1  0  0  0  0
 17 20  2  0  0  0  0
 19 21  1  0  0  0  0
 20 22  1  0  0  0  0
 22 23  1  0  0  0  0
 23 24  1  0  0  0  0
 23 25  2  0  0  0  0
 24 26  2  0  0  0  0
 24 27  1  0  0  0  0
 25 28  1  0  0  0  0
 26 29  1  0  0  0  0
 27 30  2  0  0  0  0
 28 31  1  0  0  0  0
 29 32  2  0  0  0  0
 30 33  1  0  0  0  0
 33 34  1  0  0  0  0
 34 35  2  0  0  0  0
 34 36  1  0  0  0  0
 36 37  1  0  0  0  0
 37 38  1  0  0  0  0
 37 39  1  0  0  0  0
 38 40  1  0  0  0  0
 39 41  1  0  0  0  0
 13 16  1  0  0  0  0
 18 20  1  0  0  0  0
 26 28  1  0  0  0  0
 30 32  1  0  0  0  0
 40 41  1  0  0  0  0
M  END

>  <name>
Zafirlukast

>  <ROTATABLE_BONDCOUNT>
8

>  <HBDScore>
0.5

>  <dipole>
12.91

>  <logD>
5.46

>  <MPOScore>
1.6423333333333332

>  <logDScore>
0.0

>  <MW>
575.68

>  <charge_dist(7.4)>
-1.00

>  <CNS>
FALSE

>  <ArRings>
4

>  <HBD>
2

>  <BALABAN_INDEX>
1.05

>  <bpKa>
-1.08

>  <TPSAScore>
0.1423333333333332

>  <MWScore>
0.0

>  <bpKaScore>
1.0

>  <logPScore>
0.0

>  <MPO_area>
9.52

>  <TPSA>
115.73

>  <logP>
6.40

$$$$

  Mrv1722703221715202D          

 19 20  0  0  0  0            999 V2000
    0.0000    0.0000    0.0000 O   0  0  0  0  0  0  0  0  0  0  0  0
   -0.5566    0.6278    0.0000 C   0  0  0  0  0  0  0  0  0  0  0  0
   -0.2977    1.4173    0.0000 N   0  0  0  0  0  0  0  0  0  0  0  0
   -1.3720    0.4724    0.0000 N   0  0  0  0  0  0  0  0  0  0  0  0
   -0.8542    2.0450    0.0000 C   0  0  0  0  0  0  0  0  0  0  0  0
    0.5048    1.5855    0.0000 C   0  0  1  0  0  0  0  0  0  0  0  0
   -1.9285    1.1002    0.0000 C   0  0  0  0  0  0  0  0  0  0  0  0
   -1.6697    1.8897    0.0000 C   0  0  0  0  0  0  0  0  0  0  0  0
    0.8413    2.3427    0.0000 O   0  0  0  0  0  0  0  0  0  0  0  0
    1.1066    1.0355    0.0000 C   0  0  0  0  0  0  0  0  0  0  0  0
   -2.7439    0.9449    0.0000 O   0  0  0  0  0  0  0  0  0  0  0  0
   -2.2262    2.5175    0.0000 C   0  0  0  0  0  0  0  0  0  0  0  0
    1.6567    2.2586    0.0000 C   0  0  2  0  0  0  0  0  0  0  0  0
    1.8185    1.4496    0.0000 C   0  0  2  0  0  0  0  0  0  0  0  0
    2.2068    2.8734    0.0000 C   0  0  0  0  0  0  0  0  0  0  0  0
    2.5628    1.1131    0.0000 N   0  0  0  0  0  0  0  0  0  0  0  0
    3.0093    2.6987    0.0000 O   0  0  0  0  0  0  0  0  0  0  0  0
    2.6340    0.2977    0.0000 N   0  3  0  0  0  0  0  0  0  0  0  0
    2.7051   -0.5177    0.0000 N   0  5  0  0  0  0  0  0  0  0  0  0
  1  2  2  0  0  0  0
  2  3  1  0  0  0  0
  2  4  1  0  0  0  0
  3  5  1  0  0  0  0
  6  3  1  1  0  0  0
  4  7  1  0  0  0  0
  5  8  2  0  0  0  0
  6  9  1  0  0  0  0
  6 10  1  0  0  0  0
  7 11  2  0  0  0  0
  8 12  1  0  0  0  0
  9 13  1  0  0  0  0
 10 14  1  0  0  0  0
 13 15  1  1  0  0  0
 14 16  1  6  0  0  0
 15 17  1  0  0  0  0
 16 18  2  0  0  0  0
 18 19  2  0  0  0  0
  7  8  1  0  0  0  0
 13 14  1  0  0  0  0
M  CHG  2  18   1  19  -1
M  END

>  <name>
Zidovudine

>  <ROTATABLE_BONDCOUNT>
3

>  <HBDScore>
0.5

>  <dipole>
7.07

>  <logD>
-0.41

>  <MPOScore>
4.890000000000001

>  <logDScore>
1.0

>  <MW>
267.245

>  <charge_dist(7.4)>
-0.00

>  <CNS>
FALSE

>  <ArRings>
1

>  <HBD>
2

>  <BALABAN_INDEX>
1.78

>  <bpKa>
-2.98

>  <TPSAScore>
0.3900000000000001

>  <MWScore>
1.0

>  <bpKaScore>
1.0

>  <logPScore>
1.0

>  <MPO_area>
68.08

>  <TPSA>
108.30

>  <logP>
-0.30

$$$$

  Mrv1722703221715202D          

 16 17  0  0  0  0            999 V2000
    0.0000    0.0000    0.0000 S   0  0  0  0  0  0  0  0  0  0  0  0
    0.8122    0.1289    0.0000 C   0  0  0  0  0  0  0  0  0  0  0  0
   -0.3803    0.7477    0.0000 C   0  0  0  0  0  0  0  0  0  0  0  0
    0.9411    0.9540    0.0000 C   0  0  0  0  0  0  0  0  0  0  0  0
    1.4439   -0.3868    0.0000 C   0  0  0  0  0  0  0  0  0  0  0  0
    0.1998    1.3343    0.0000 C   0  0  0  0  0  0  0  0  0  0  0  0
   -1.2053    0.8895    0.0000 C   0  0  1  0  0  0  0  0  0  0  0  0
    1.7081    1.2505    0.0000 C   0  0  0  0  0  0  0  0  0  0  0  0
    2.2109   -0.0902    0.0000 C   0  0  0  0  0  0  0  0  0  0  0  0
   -1.7339    0.2578    0.0000 N   0  0  0  0  0  0  0  0  0  0  0  0
   -1.5019    1.6695    0.0000 C   0  0  0  0  0  0  0  0  0  0  0  0
    2.3398    0.7348    0.0000 C   0  0  0  0  0  0  0  0  0  0  0  0
   -1.4503   -0.5092    0.0000 O   0  0  0  0  0  0  0  0  0  0  0  0
   -2.5590    0.3996    0.0000 C   0  0  0  0  0  0  0  0  0  0  0  0
   -2.8555    1.1796    0.0000 O   0  0  0  0  0  0  0  0  0  0  0  0
   -3.0875   -0.2321    0.0000 N   0  0  0  0  0  0  0  0  0  0  0  0
  1  2  1  0  0  0  0
  1  3  1  0  0  0  0
  2  4  2  0  0  0  0
  2  5  1  0  0  0  0
  3  6  2  0  0  0  0
  3  7  1  0  0  0  0
  4  8  1  0  0  0  0
  5  9  2  0  0  0  0
  7 10  1  1  0  0  0
  7 11  1  0  0  0  0
  8 12  2  0  0  0  0
 10 13  1  0  0  0  0
 10 14  1  0  0  0  0
 14 15  2  0  0  0  0
 14 16  1  0  0  0  0
  4  6  1  0  0  0  0
  9 12  1  0  0  0  0
M  END

>  <name>
Zileuton

>  <ROTATABLE_BONDCOUNT>
2

>  <HBDScore>
0.5

>  <dipole>
5.86

>  <logD>
1.99

>  <MPOScore>
5.5

>  <logDScore>
1.0

>  <MW>
236.29

>  <charge_dist(7.4)>
-0.04

>  <CNS>
FALSE

>  <ArRings>
2

>  <HBD>
2

>  <BALABAN_INDEX>
1.69

>  <bpKa>
-5.49

>  <TPSAScore>
1.0

>  <MWScore>
1.0

>  <bpKaScore>
1.0

>  <logPScore>
1.0

>  <MPO_area>
83.33

>  <TPSA>
66.56

>  <logP>
2.01

$$$$

  Mrv1722703221715202D          

 26 30  0  0  0  0            999 V2000
    0.0000    0.0000    0.0000 O   0  0  0  0  0  0  0  0  0  0  0  0
    0.8146    0.1303    0.0000 C   0  0  1  0  0  0  0  0  0  0  0  0
    1.1079    0.9124    0.0000 C   0  0  0  0  0  0  0  0  0  0  0  0
    1.3295   -0.5084    0.0000 C   0  0  0  0  0  0  0  0  0  0  0  0
    1.9226    1.0428    0.0000 C   0  0  0  0  0  0  0  0  0  0  0  0
    2.1442   -0.3780    0.0000 C   0  0  0  0  0  0  0  0  0  0  0  0
    2.2159    1.8249    0.0000 C   0  0  0  0  0  0  0  0  0  0  0  0
    2.4375    0.4041    0.0000 C   0  0  1  0  0  0  0  0  0  0  0  0
    3.0306    1.9552    0.0000 C   0  0  0  0  0  0  0  0  0  0  0  0
    3.2521    0.5344    0.0000 C   0  0  1  0  0  0  0  0  0  0  0  0
    2.9523   -0.2346    0.0000 C   0  0  0  0  0  0  0  0  0  0  0  0
    3.5454    1.3165    0.0000 C   0  0  1  0  0  0  0  0  0  0  0  0
    3.7670   -0.1043    0.0000 C   0  0  0  0  0  0  0  0  0  0  0  0
    4.3601    1.4468    0.0000 C   0  0  2  0  0  0  0  0  0  0  0  0
    4.5817    0.0261    0.0000 C   0  0  0  0  0  0  0  0  0  0  0  0
    4.8750    0.8081    0.0000 C   0  0  1  0  0  0  0  0  0  0  0  0
    4.8098    2.1442    0.0000 C   0  0  0  0  0  0  0  0  0  0  0  0
    5.6440    1.1079    0.0000 C   0  0  0  0  0  0  0  0  0  0  0  0
    5.4550    0.2281    0.0000 C   0  0  0  0  0  0  0  0  0  0  0  0
    5.6049    1.9357    0.0000 C   0  0  0  0  0  0  0  0  0  0  0  0
    6.3283    0.6582    0.0000 C   0  0  0  0  0  0  0  0  0  0  0  0
    7.0648    1.0362    0.0000 C   0  0  0  0  0  0  0  0  0  0  0  0
    6.2762   -0.1629    0.0000 C   0  0  0  0  0  0  0  0  0  0  0  0
    7.7491    0.5865    0.0000 N   0  0  0  0  0  0  0  0  0  0  0  0
    6.9605   -0.6126    0.0000 C   0  0  0  0  0  0  0  0  0  0  0  0
    7.6970   -0.2346    0.0000 C   0  0  0  0  0  0  0  0  0  0  0  0
  2  1  1  1  0  0  0
  2  3  1  0  0  0  0
  2  4  1  0  0  0  0
  3  5  1  0  0  0  0
  4  6  1  0  0  0  0
  5  7  2  0  0  0  0
  5  8  1  0  0  0  0
  7  9  1  0  0  0  0
  8 10  1  0  0  0  0
  8 11  1  1  0  0  0
 12  9  1  6  0  0  0
 10 13  1  1  0  0  0
 12 14  1  0  0  0  0
 13 15  1  0  0  0  0
 14 16  1  0  0  0  0
 14 17  1  1  0  0  0
 16 18  1  0  0  0  0
 16 19  1  1  0  0  0
 17 20  1  0  0  0  0
 18 21  1  0  0  0  0
 21 22  2  0  0  0  0
 21 23  1  0  0  0  0
 22 24  1  0  0  0  0
 23 25  2  0  0  0  0
 24 26  2  0  0  0  0
  6  8  1  0  0  0  0
 10 12  1  0  0  0  0
 15 16  1  0  0  0  0
 18 20  2  0  0  0  0
 25 26  1  0  0  0  0
M  END

>  <name>
Abiraterone

>  <ROTATABLE_BONDCOUNT>
1

>  <HBDScore>
0.8333333333333334

>  <dipole>
2.08

>  <logD>
3.96

>  <MPOScore>
4.024333333333334

>  <logDScore>
0.020000000000000018

>  <MW>
349.518

>  <charge_dist(7.4)>
0.00

>  <CNS>
TRUE

>  <ArRings>
1

>  <HBD>
1

>  <BALABAN_INDEX>
1.38

>  <bpKa>
4.81

>  <TPSAScore>
0.6559999999999999

>  <MWScore>
1.0

>  <bpKaScore>
1.0

>  <logPScore>
0.5149999999999999

>  <MPO_area>
45.8

>  <TPSA>
33.12

>  <logP>
3.97

$$$$

  Mrv1722703221715202D          

 24 24  0  0  0  0            999 V2000
    0.0000    0.0000    0.0000 O   0  0  0  0  0  0  0  0  0  0  0  0
    0.4971    0.6585    0.0000 C   0  0  0  0  0  0  0  0  0  0  0  0
    0.1743    1.4267    0.0000 N   0  0  0  0  0  0  0  0  0  0  0  0
    1.3104    0.5552    0.0000 C   0  0  0  0  0  0  0  0  0  0  0  0
   -0.6520    1.5429    0.0000 C   0  0  0  0  0  0  0  0  0  0  0  0
    1.6203   -0.2001    0.0000 C   0  0  0  0  0  0  0  0  0  0  0  0
   -0.9748    2.3111    0.0000 C   0  0  0  0  0  0  0  0  0  0  0  0
   -1.1620    0.8973    0.0000 C   0  0  0  0  0  0  0  0  0  0  0  0
    2.4337   -0.3034    0.0000 C   0  0  0  0  0  0  0  0  0  0  0  0
   -1.8011    2.4272    0.0000 C   0  0  0  0  0  0  0  0  0  0  0  0
   -1.9883    1.0135    0.0000 C   0  0  0  0  0  0  0  0  0  0  0  0
   -2.3111    1.7817    0.0000 C   0  0  0  0  0  0  0  0  0  0  0  0
   -2.1238    3.1955    0.0000 C   0  0  0  0  0  0  0  0  0  0  0  0
   -3.1374    1.8979    0.0000 O   0  0  0  0  0  0  0  0  0  0  0  0
   -2.9501    3.3116    0.0000 O   0  0  0  0  0  0  0  0  0  0  0  0
   -1.6268    3.8539    0.0000 C   0  0  0  0  0  0  0  0  0  0  0  0
   -3.6474    1.2524    0.0000 C   0  0  0  0  0  0  0  0  0  0  0  0
   -4.4737    1.3686    0.0000 C   0  0  1  0  0  0  0  0  0  0  0  0
   -4.7964    2.1368    0.0000 O   0  0  0  0  0  0  0  0  0  0  0  0
   -4.9836    0.7230    0.0000 C   0  0  0  0  0  0  0  0  0  0  0  0
   -5.8100    0.8392    0.0000 N   0  0  0  0  0  0  0  0  0  0  0  0
   -6.3199    0.1936    0.0000 C   0  0  0  0  0  0  0  0  0  0  0  0
   -7.1462    0.3099    0.0000 C   0  0  0  0  0  0  0  0  0  0  0  0
   -6.0101   -0.5616    0.0000 C   0  0  0  0  0  0  0  0  0  0  0  0
  1  2  2  0  0  0  0
  2  3  1  0  0  0  0
  2  4  1  0  0  0  0
  3  5  1  0  0  0  0
  4  6  1  0  0  0  0
  5  7  2  0  0  0  0
  5  8  1  0  0  0  0
  6  9  1  0  0  0  0
  7 10  1  0  0  0  0
  8 11  2  0  0  0  0
 10 12  2  0  0  0  0
 10 13  1  0  0  0  0
 12 14  1  0  0  0  0
 13 15  2  0  0  0  0
 13 16  1  0  0  0  0
 14 17  1  0  0  0  0
 17 18  1  0  0  0  0
 18 19  1  6  0  0  0
 18 20  1  0  0  0  0
 20 21  1  0  0  0  0
 21 22  1  0  0  0  0
 22 23  1  0  0  0  0
 22 24  1  0  0  0  0
 11 12  1  0  0  0  0
M  END

>  <name>
Acebutolol

>  <ROTATABLE_BONDCOUNT>
10

>  <HBDScore>
0.16666666666666674

>  <dipole>
9.55

>  <logD>
-0.60

>  <MPOScore>
4.381666666666667

>  <logDScore>
1.0

>  <MW>
336.432

>  <charge_dist(7.4)>
0.99

>  <CNS>
TRUE

>  <ArRings>
1

>  <HBD>
3

>  <BALABAN_INDEX>
2.42

>  <bpKa>
9.57

>  <TPSAScore>
1.0

>  <MWScore>
1.0

>  <bpKaScore>
0.21499999999999986

>  <logPScore>
1.0

>  <MPO_area>
56.96

>  <TPSA>
87.66

>  <logP>
1.53

$$$$

  Mrv1722703221715202D          

 11 11  0  0  0  0            999 V2000
    0.0000    0.0000    0.0000 O   0  0  0  0  0  0  0  0  0  0  0  0
   -0.2208   -0.7949    0.0000 C   0  0  0  0  0  0  0  0  0  0  0  0
    0.3596   -1.3752    0.0000 N   0  0  0  0  0  0  0  0  0  0  0  0
   -1.0283   -1.0030    0.0000 C   0  0  0  0  0  0  0  0  0  0  0  0
    1.1544   -1.1544    0.0000 C   0  0  0  0  0  0  0  0  0  0  0  0
    1.3626   -0.3470    0.0000 C   0  0  0  0  0  0  0  0  0  0  0  0
    1.7348   -1.7348    0.0000 C   0  0  0  0  0  0  0  0  0  0  0  0
    2.1575   -0.1262    0.0000 C   0  0  0  0  0  0  0  0  0  0  0  0
    2.5297   -1.5140    0.0000 C   0  0  0  0  0  0  0  0  0  0  0  0
    2.7379   -0.7066    0.0000 C   0  0  0  0  0  0  0  0  0  0  0  0
    3.5327   -0.4857    0.0000 O   0  0  0  0  0  0  0  0  0  0  0  0
  1  2  2  0  0  0  0
  2  3  1  0  0  0  0
  2  4  1  0  0  0  0
  3  5  1  0  0  0  0
  5  6  2  0  0  0  0
  5  7  1  0  0  0  0
  6  8  1  0  0  0  0
  7  9  2  0  0  0  0
  8 10  2  0  0  0  0
 10 11  1  0  0  0  0
  9 10  1  0  0  0  0
M  END

>  <name>
Acetaminophen

>  <ROTATABLE_BONDCOUNT>
1

>  <HBDScore>
0.5

>  <dipole>
3.30

>  <logD>
0.90

>  <MPOScore>
5.5

>  <logDScore>
1.0

>  <MW>
151.165

>  <charge_dist(7.4)>
-0.01

>  <CNS>
TRUE

>  <ArRings>
1

>  <HBD>
2

>  <BALABAN_INDEX>
1.97

>  <bpKa>
-4.36

>  <TPSAScore>
1.0

>  <MWScore>
1.0

>  <bpKaScore>
1.0

>  <logPScore>
1.0

>  <MPO_area>
83.33

>  <TPSA>
49.33

>  <logP>
0.91

$$$$

  Mrv1722703221715202D          

 13 13  0  0  0  0            999 V2000
    0.0000    0.0000    0.0000 S   0  0  0  0  0  0  0  0  0  0  0  0
   -0.1362   -0.8110    0.0000 O   0  0  0  0  0  0  0  0  0  0  0  0
    0.1233    0.8240    0.0000 O   0  0  0  0  0  0  0  0  0  0  0  0
    0.8110   -0.1233    0.0000 N   0  0  0  0  0  0  0  0  0  0  0  0
   -0.8240    0.1362    0.0000 C   0  0  0  0  0  0  0  0  0  0  0  0
   -1.4145   -0.4412    0.0000 S   0  0  0  0  0  0  0  0  0  0  0  0
   -1.2004    0.8760    0.0000 N   0  0  0  0  0  0  0  0  0  0  0  0
   -2.1542   -0.0584    0.0000 C   0  0  0  0  0  0  0  0  0  0  0  0
   -2.0244    0.7527    0.0000 N   0  0  0  0  0  0  0  0  0  0  0  0
   -2.8938   -0.4217    0.0000 N   0  0  0  0  0  0  0  0  0  0  0  0
   -3.5946    0.0389    0.0000 C   0  0  0  0  0  0  0  0  0  0  0  0
   -3.5557    0.8694    0.0000 O   0  0  0  0  0  0  0  0  0  0  0  0
   -4.3343   -0.3244    0.0000 C   0  0  0  0  0  0  0  0  0  0  0  0
  1  2  2  0  0  0  0
  1  3  2  0  0  0  0
  1  4  1  0  0  0  0
  1  5  1  0  0  0  0
  5  6  1  0  0  0  0
  5  7  2  0  0  0  0
  6  8  1  0  0  0  0
  7  9  1  0  0  0  0
  8 10  1  0  0  0  0
 10 11  1  0  0  0  0
 11 12  2  0  0  0  0
 11 13  1  0  0  0  0
  8  9  2  0  0  0  0
M  END

>  <name>
Acetazolamide

>  <ROTATABLE_BONDCOUNT>
2

>  <HBDScore>
0.5

>  <dipole>
7.48

>  <logD>
-2.08

>  <MPOScore>
4.665333333333333

>  <logDScore>
1.0

>  <MW>
222.24

>  <charge_dist(7.4)>
-1.44

>  <CNS>
TRUE

>  <ArRings>
1

>  <HBD>
2

>  <BALABAN_INDEX>
2.18

>  <bpKa>
-3.32

>  <TPSAScore>
0.1653333333333331

>  <MWScore>
1.0

>  <bpKaScore>
1.0

>  <logPScore>
1.0

>  <MPO_area>
62.47

>  <TPSA>
115.04

>  <logP>
-1.04

$$$$

  Mrv1722703221715202D          

 29 32  0  0  0  0            999 V2000
    0.0000    0.0000    0.0000 S   0  0  0  0  0  0  0  0  0  0  0  0
   -0.3148    0.7710    0.0000 C   0  0  0  0  0  0  0  0  0  0  0  0
    0.8096   -0.1092    0.0000 C   0  0  0  0  0  0  0  0  0  0  0  0
    0.1863    1.4263    0.0000 C   0  0  0  0  0  0  0  0  0  0  0  0
   -1.1372    0.8931    0.0000 C   0  0  0  0  0  0  0  0  0  0  0  0
    1.3107    0.5461    0.0000 C   0  0  0  0  0  0  0  0  0  0  0  0
    1.1115   -0.8674    0.0000 C   0  0  0  0  0  0  0  0  0  0  0  0
    0.9959    1.3171    0.0000 N   0  0  0  0  0  0  0  0  0  0  0  0
   -0.1285    2.1973    0.0000 C   0  0  0  0  0  0  0  0  0  0  0  0
   -1.4521    1.6640    0.0000 C   0  0  0  0  0  0  0  0  0  0  0  0
    2.1203    0.4369    0.0000 C   0  0  0  0  0  0  0  0  0  0  0  0
    1.9211   -0.9766    0.0000 C   0  0  0  0  0  0  0  0  0  0  0  0
    1.4970    1.9725    0.0000 C   0  0  0  0  0  0  0  0  0  0  0  0
   -0.9509    2.3194    0.0000 C   0  0  0  0  0  0  0  0  0  0  0  0
    2.4222   -0.3213    0.0000 C   0  0  0  0  0  0  0  0  0  0  0  0
    2.3066    1.8632    0.0000 C   0  0  0  0  0  0  0  0  0  0  0  0
   -1.2657    3.0904    0.0000 C   0  0  0  0  0  0  0  0  0  0  0  0
    2.8077    2.5186    0.0000 C   0  0  0  0  0  0  0  0  0  0  0  0
   -2.0881    3.2125    0.0000 O   0  0  0  0  0  0  0  0  0  0  0  0
   -0.7646    3.7458    0.0000 C   0  0  0  0  0  0  0  0  0  0  0  0
    3.6173    2.4094    0.0000 N   0  0  0  0  0  0  0  0  0  0  0  0
    3.9193    1.6512    0.0000 C   0  0  0  0  0  0  0  0  0  0  0  0
    4.1184    3.0647    0.0000 C   0  0  0  0  0  0  0  0  0  0  0  0
    4.7288    1.5420    0.0000 C   0  0  0  0  0  0  0  0  0  0  0  0
    4.9280    2.9555    0.0000 C   0  0  0  0  0  0  0  0  0  0  0  0
    5.2300    2.1973    0.0000 N   0  0  0  0  0  0  0  0  0  0  0  0
    6.0395    2.0881    0.0000 C   0  0  0  0  0  0  0  0  0  0  0  0
    6.3415    1.3300    0.0000 C   0  0  0  0  0  0  0  0  0  0  0  0
    7.1510    1.2207    0.0000 O   0  0  0  0  0  0  0  0  0  0  0  0
  1  2  1  0  0  0  0
  1  3  1  0  0  0  0
  2  4  2  0  0  0  0
  2  5  1  0  0  0  0
  3  6  2  0  0  0  0
  3  7  1  0  0  0  0
  4  8  1  0  0  0  0
  4  9  1  0  0  0  0
  5 10  2  0  0  0  0
  6 11  1  0  0  0  0
  7 12  2  0  0  0  0
  8 13  1  0  0  0  0
  9 14  2  0  0  0  0
 11 15  2  0  0  0  0
 13 16  1  0  0  0  0
 14 17  1  0  0  0  0
 16 18  1  0  0  0  0
 17 19  2  0  0  0  0
 17 20  1  0  0  0  0
 18 21  1  0  0  0  0
 21 22  1  0  0  0  0
 21 23  1  0  0  0  0
 22 24  1  0  0  0  0
 23 25  1  0  0  0  0
 24 26  1  0  0  0  0
 26 27  1  0  0  0  0
 27 28  1  0  0  0  0
 28 29  1  0  0  0  0
  6  8  1  0  0  0  0
 10 14  1  0  0  0  0
 12 15  1  0  0  0  0
 25 26  1  0  0  0  0
M  END

>  <name>
Acetophenazine

>  <ROTATABLE_BONDCOUNT>
7

>  <HBDScore>
0.8333333333333334

>  <dipole>
6.96

>  <logD>
2.19

>  <MPOScore>
5.370047619047619

>  <logDScore>
0.905

>  <MW>
411.56

>  <charge_dist(7.4)>
0.63

>  <CNS>
TRUE

>  <ArRings>
2

>  <HBD>
1

>  <BALABAN_INDEX>
1.24

>  <bpKa>
7.67

>  <TPSAScore>
1.0

>  <MWScore>
0.6317142857142857

>  <bpKaScore>
1.0

>  <logPScore>
1.0

>  <MPO_area>
80.29

>  <TPSA>
47.02

>  <logP>
2.65

$$$$

  Mrv1722703221715202D          

 24 24  0  0  0  0            999 V2000
    0.0000    0.0000    0.0000 O   0  0  0  0  0  0  0  0  0  0  0  0
    0.1165    0.8287    0.0000 C   0  0  0  0  0  0  0  0  0  0  0  0
   -0.5438    1.3530    0.0000 O   0  0  0  0  0  0  0  0  0  0  0  0
    0.8804    1.1394    0.0000 C   0  0  0  0  0  0  0  0  0  0  0  0
    1.5278    0.6279    0.0000 C   0  0  0  0  0  0  0  0  0  0  0  0
    2.2917    0.9387    0.0000 C   0  0  0  0  0  0  0  0  0  0  0  0
    1.3983   -0.1877    0.0000 C   0  0  0  0  0  0  0  0  0  0  0  0
    2.9390    0.4273    0.0000 C   0  0  0  0  0  0  0  0  0  0  0  0
    3.7029    0.7380    0.0000 C   0  0  0  0  0  0  0  0  0  0  0  0
    4.3503    0.2266    0.0000 C   0  0  0  0  0  0  0  0  0  0  0  0
    5.1142    0.5373    0.0000 C   0  0  0  0  0  0  0  0  0  0  0  0
    4.2209   -0.5891    0.0000 C   0  0  0  0  0  0  0  0  0  0  0  0
    5.7616    0.0259    0.0000 C   0  0  0  0  0  0  0  0  0  0  0  0
    6.5255    0.3366    0.0000 C   0  0  0  0  0  0  0  0  0  0  0  0
    7.1728   -0.1748    0.0000 C   0  0  0  0  0  0  0  0  0  0  0  0
    6.6420    1.1652    0.0000 C   0  0  0  0  0  0  0  0  0  0  0  0
    7.9367    0.1359    0.0000 C   0  0  0  0  0  0  0  0  0  0  0  0
    7.0433   -0.9905    0.0000 C   0  0  0  0  0  0  0  0  0  0  0  0
    7.4059    1.4760    0.0000 C   0  0  0  0  0  0  0  0  0  0  0  0
    5.9817    1.6896    0.0000 C   0  0  0  0  0  0  0  0  0  0  0  0
    8.0533    0.9646    0.0000 C   0  0  0  0  0  0  0  0  0  0  0  0
    8.5841   -0.3755    0.0000 C   0  0  0  0  0  0  0  0  0  0  0  0
    8.8171    1.2753    0.0000 O   0  0  0  0  0  0  0  0  0  0  0  0
    8.9337    2.1040    0.0000 C   0  0  0  0  0  0  0  0  0  0  0  0
  1  2  2  0  0  0  0
  2  3  1  0  0  0  0
  2  4  1  0  0  0  0
  4  5  2  0  0  0  0
  5  6  1  0  0  0  0
  5  7  1  0  0  0  0
  6  8  2  0  0  0  0
  8  9  1  0  0  0  0
  9 10  2  0  0  0  0
 10 11  1  0  0  0  0
 10 12  1  0  0  0  0
 11 13  2  0  0  0  0
 13 14  1  0  0  0  0
 14 15  2  0  0  0  0
 14 16  1  0  0  0  0
 15 17  1  0  0  0  0
 15 18  1  0  0  0  0
 16 19  2  0  0  0  0
 16 20  1  0  0  0  0
 17 21  2  0  0  0  0
 17 22  1  0  0  0  0
 21 23  1  0  0  0  0
 23 24  1  0  0  0  0
 19 21  1  0  0  0  0
M  END

>  <name>
Acitretin

>  <ROTATABLE_BONDCOUNT>
6

>  <HBDScore>
0.8333333333333334

>  <dipole>
28.47

>  <logD>
3.23

>  <MPOScore>
4.218333333333334

>  <logDScore>
0.385

>  <MW>
326.436

>  <charge_dist(7.4)>
-1.00

>  <CNS>
TRUE

>  <ArRings>
1

>  <HBD>
1

>  <BALABAN_INDEX>
2.29

>  <bpKa>
-4.82

>  <TPSAScore>
1.0

>  <MWScore>
1.0

>  <bpKaScore>
1.0

>  <logPScore>
0.0

>  <MPO_area>
52.57

>  <TPSA>
46.53

>  <logP>
5.59

$$$$

  Mrv1722703221715202D          

 34 37  0  0  0  0            999 V2000
    0.0000    0.0000    0.0000 Cl  0  0  0  0  0  0  0  0  0  0  0  0
   -0.3404    0.7514    0.0000 C   0  0  0  0  0  0  0  0  0  0  0  0
    0.1349    1.4258    0.0000 C   0  0  0  0  0  0  0  0  0  0  0  0
   -1.1625    0.8414    0.0000 C   0  0  0  0  0  0  0  0  0  0  0  0
    0.9441    1.3487    0.0000 F   0  0  0  0  0  0  0  0  0  0  0  0
   -0.2055    2.1772    0.0000 C   0  0  0  0  0  0  0  0  0  0  0  0
   -1.5029    1.5928    0.0000 C   0  0  0  0  0  0  0  0  0  0  0  0
   -1.0276    2.2672    0.0000 C   0  0  0  0  0  0  0  0  0  0  0  0
   -2.3250    1.6827    0.0000 N   0  0  0  0  0  0  0  0  0  0  0  0
   -2.6654    2.4342    0.0000 C   0  0  0  0  0  0  0  0  0  0  0  0
   -2.1901    3.1085    0.0000 N   0  0  0  0  0  0  0  0  0  0  0  0
   -3.4874    2.5241    0.0000 C   0  0  0  0  0  0  0  0  0  0  0  0
   -2.5305    3.8599    0.0000 C   0  0  0  0  0  0  0  0  0  0  0  0
   -3.8278    3.2755    0.0000 C   0  0  0  0  0  0  0  0  0  0  0  0
   -3.9755    1.8625    0.0000 C   0  0  0  0  0  0  0  0  0  0  0  0
   -3.3526    3.9499    0.0000 N   0  0  0  0  0  0  0  0  0  0  0  0
   -4.6499    3.3654    0.0000 C   0  0  0  0  0  0  0  0  0  0  0  0
   -4.7976    1.9524    0.0000 C   0  0  0  0  0  0  0  0  0  0  0  0
   -5.1380    2.7039    0.0000 C   0  0  0  0  0  0  0  0  0  0  0  0
   -5.2857    1.2909    0.0000 N   0  0  0  0  0  0  0  0  0  0  0  0
   -5.9601    2.7938    0.0000 O   0  0  0  0  0  0  0  0  0  0  0  0
   -6.1079    1.3808    0.0000 C   0  0  0  0  0  0  0  0  0  0  0  0
   -6.3005    3.5452    0.0000 C   0  0  2  0  0  0  0  0  0  0  0  0
   -6.4483    2.1323    0.0000 O   0  0  0  0  0  0  0  0  0  0  0  0
   -6.5960    0.7194    0.0000 C   0  0  0  0  0  0  0  0  0  0  0  0
   -7.1098    3.7187    0.0000 C   0  0  0  0  0  0  0  0  0  0  0  0
   -5.9023    4.2646    0.0000 C   0  0  0  0  0  0  0  0  0  0  0  0
   -7.4180    0.8093    0.0000 C   0  0  0  0  0  0  0  0  0  0  0  0
   -7.2061    4.5407    0.0000 O   0  0  0  0  0  0  0  0  0  0  0  0
   -6.4611    4.8811    0.0000 C   0  0  0  0  0  0  0  0  0  0  0  0
   -7.9061    0.1477    0.0000 C   0  0  0  0  0  0  0  0  0  0  0  0
   -8.7282    0.2376    0.0000 N   0  0  0  0  0  0  0  0  0  0  0  0
   -9.2163   -0.4239    0.0000 C   0  0  0  0  0  0  0  0  0  0  0  0
   -9.0686    0.9891    0.0000 C   0  0  0  0  0  0  0  0  0  0  0  0
  1  2  1  0  0  0  0
  2  3  2  0  0  0  0
  2  4  1  0  0  0  0
  3  5  1  0  0  0  0
  3  6  1  0  0  0  0
  4  7  2  0  0  0  0
  6  8  2  0  0  0  0
  7  9  1  0  0  0  0
  9 10  1  0  0  0  0
 10 11  2  0  0  0  0
 10 12  1  0  0  0  0
 11 13  1  0  0  0  0
 12 14  2  0  0  0  0
 12 15  1  0  0  0  0
 13 16  2  0  0  0  0
 14 17  1  0  0  0  0
 15 18  2  0  0  0  0
 17 19  2  0  0  0  0
 18 20  1  0  0  0  0
 19 21  1  0  0  0  0
 20 22  1  0  0  0  0
 23 21  1  6  0  0  0
 22 24  2  0  0  0  0
 22 25  1  0  0  0  0
 23 26  1  0  0  0  0
 23 27  1  0  0  0  0
 25 28  2  0  0  0  0
 26 29  1  0  0  0  0
 27 30  1  0  0  0  0
 28 31  1  0  0  0  0
 31 32  1  0  0  0  0
 32 33  1  0  0  0  0
 32 34  1  0  0  0  0
  7  8  1  0  0  0  0
 14 16  1  0  0  0  0
 18 19  1  0  0  0  0
 29 30  1  0  0  0  0
M  END

>  <name>
Afatinib

>  <ROTATABLE_BONDCOUNT>
8

>  <HBDScore>
0.5

>  <dipole>
8.07

>  <logD>
2.34

>  <MPOScore>
3.6454285714285715

>  <logDScore>
0.8300000000000001

>  <MW>
485.94

>  <charge_dist(7.4)>
0.96

>  <CNS>
TRUE

>  <ArRings>
3

>  <HBD>
2

>  <BALABAN_INDEX>
1.31

>  <bpKa>
8.81

>  <TPSAScore>
1.0

>  <MWScore>
0.10042857142857142

>  <bpKaScore>
0.5949999999999998

>  <logPScore>
0.6200000000000001

>  <MPO_area>
36.03

>  <TPSA>
88.61

>  <logP>
3.76

$$$$

  Mrv1722703221715202D          

 18 19  0  0  0  0            999 V2000
    0.0000    0.0000    0.0000 S   0  0  0  0  0  0  0  0  0  0  0  0
   -0.6933   -0.4471    0.0000 C   0  0  0  0  0  0  0  0  0  0  0  0
    0.7322   -0.3629    0.0000 C   0  0  0  0  0  0  0  0  0  0  0  0
   -1.4385   -0.0713    0.0000 C   0  0  0  0  0  0  0  0  0  0  0  0
   -0.6480   -1.2635    0.0000 C   0  0  0  0  0  0  0  0  0  0  0  0
    1.4126    0.0972    0.0000 C   0  0  0  0  0  0  0  0  0  0  0  0
   -2.1319   -0.5184    0.0000 C   0  0  0  0  0  0  0  0  0  0  0  0
   -1.3413   -1.7106    0.0000 C   0  0  0  0  0  0  0  0  0  0  0  0
    2.1448   -0.2657    0.0000 C   0  0  0  0  0  0  0  0  0  0  0  0
   -2.9354   -0.3046    0.0000 N   0  0  0  0  0  0  0  0  0  0  0  0
   -2.0865   -1.3348    0.0000 C   0  0  0  0  0  0  0  0  0  0  0  0
   -3.3889   -0.9914    0.0000 C   0  0  0  0  0  0  0  0  0  0  0  0
   -2.8576   -1.6264    0.0000 N   0  0  0  0  0  2  0  0  0  0  0  0
   -4.2183   -1.0367    0.0000 N   0  0  0  0  0  0  0  0  0  0  0  0
   -4.6784   -0.3434    0.0000 C   0  0  0  0  0  0  0  0  0  0  0  0
   -4.3155    0.4017    0.0000 O   0  0  0  0  0  0  0  0  0  0  0  0
   -5.5078   -0.3888    0.0000 O   0  0  0  0  0  0  0  0  0  0  0  0
   -5.9679    0.3046    0.0000 C   0  0  0  0  0  0  0  0  0  0  0  0
  1  2  1  0  0  0  0
  1  3  1  0  0  0  0
  2  4  2  0  0  0  0
  2  5  1  0  0  0  0
  3  6  1  0  0  0  0
  4  7  1  0  0  0  0
  5  8  2  0  0  0  0
  6  9  1  0  0  0  0
  7 10  1  0  0  0  0
  7 11  2  0  0  0  0
 10 12  2  0  0  0  0
 11 13  1  0  0  0  0
 12 14  1  0  0  0  0
 14 15  1  0  0  0  0
 15 16  2  0  0  0  0
 15 17  1  0  0  0  0
 17 18  1  0  0  0  0
  8 11  1  0  0  0  0
 12 13  1  0  0  0  0
M  RAD  1  13   2
M  END

>  <name>
Albendazole

>  <ROTATABLE_BONDCOUNT>
5

>  <HBDScore>
0.8333333333333334

>  <logD>
3.42

>  <MPOScore>
4.913333333333334

>  <logDScore>
0.29000000000000004

>  <MW>
264.32

>  <charge_dist(7.4)>
-0.00

>  <CNS>
TRUE

>  <ArRings>
2

>  <HBD>
1

>  <BALABAN_INDEX>
1.67

>  <bpKa>
0.48

>  <TPSAScore>
1.0

>  <MWScore>
1.0

>  <bpKaScore>
1.0

>  <logPScore>
0.79

>  <MPO_area>
66.85

>  <TPSA>
64.11

>  <logP>
3.42

$$$$

  Mrv1722703221715202D          

 23 25  0  0  0  0            999 V2000
    0.0000    0.0000    0.0000 S   0  0  0  0  0  0  0  0  0  0  0  0
   -0.7866   -0.2535    0.0000 O   0  0  0  0  0  0  0  0  0  0  0  0
    0.7736    0.2666    0.0000 O   0  0  0  0  0  0  0  0  0  0  0  0
   -0.2666    0.7866    0.0000 N   0  0  0  0  0  0  0  0  0  0  0  0
    0.2535   -0.7736    0.0000 C   0  0  0  0  0  0  0  0  0  0  0  0
   -1.0596    1.0401    0.0000 C   0  0  0  0  0  0  0  0  0  0  0  0
    0.2080    1.4627    0.0000 C   0  0  0  0  0  0  0  0  0  0  0  0
    1.0531   -0.9296    0.0000 C   0  0  0  0  0  0  0  0  0  0  0  0
   -1.0726    1.8722    0.0000 C   0  0  0  0  0  0  0  0  0  0  0  0
   -0.2860    2.1322    0.0000 C   0  0  0  0  0  0  0  0  0  0  0  0
    1.5927   -0.3055    0.0000 C   0  0  0  0  0  0  0  0  0  0  0  0
    1.3067   -1.7032    0.0000 C   0  0  0  0  0  0  0  0  0  0  0  0
    2.3923   -0.4615    0.0000 C   0  0  0  0  0  0  0  0  0  0  0  0
    2.1062   -1.8592    0.0000 C   0  0  0  0  0  0  0  0  0  0  0  0
    2.6458   -1.2351    0.0000 C   0  0  0  0  0  0  0  0  0  0  0  0
    3.0488    0.0325    0.0000 C   0  0  0  0  0  0  0  0  0  0  0  0
    3.4649   -1.2221    0.0000 N   0  0  0  0  0  2  0  0  0  0  0  0
    3.7119   -0.4420    0.0000 C   0  0  0  0  0  0  0  0  0  0  0  0
    3.0358    0.8646    0.0000 C   0  0  0  0  0  0  0  0  0  0  0  0
    3.7444    1.2872    0.0000 C   0  0  0  0  0  0  0  0  0  0  0  0
    3.7314    2.1192    0.0000 N   0  0  0  0  0  0  0  0  0  0  0  0
    4.4400    2.5418    0.0000 C   0  0  0  0  0  0  0  0  0  0  0  0
    3.0099    2.5353    0.0000 C   0  0  0  0  0  0  0  0  0  0  0  0
  1  2  2  0  0  0  0
  1  3  2  0  0  0  0
  1  4  1  0  0  0  0
  1  5  1  0  0  0  0
  4  6  1  0  0  0  0
  4  7  1  0  0  0  0
  5  8  1  0  0  0  0
  6  9  1  0  0  0  0
  7 10  1  0  0  0  0
  8 11  2  0  0  0  0
  8 12  1  0  0  0  0
 11 13  1  0  0  0  0
 12 14  2  0  0  0  0
 13 15  2  0  0  0  0
 13 16  1  0  0  0  0
 15 17  1  0  0  0  0
 16 18  2  0  0  0  0
 16 19  1  0  0  0  0
 19 20  1  0  0  0  0
 20 21  1  0  0  0  0
 21 22  1  0  0  0  0
 21 23  1  0  0  0  0
  9 10  1  0  0  0  0
 14 15  1  0  0  0  0
 17 18  1  0  0  0  0
M  RAD  1  17   2
M  END

>  <name>
Almotriptan

>  <ROTATABLE_BONDCOUNT>
5

>  <HBDScore>
1.0

>  <logD>
-0.48

>  <MPOScore>
5.43

>  <logDScore>
1.0

>  <MW>
334.46

>  <charge_dist(7.4)>
0.98

>  <CNS>
TRUE

>  <ArRings>
2

>  <HBD>
0

>  <BALABAN_INDEX>
1.48

>  <bpKa>
9.14

>  <TPSAScore>
1.0

>  <MWScore>
1.0

>  <bpKaScore>
0.4299999999999997

>  <logPScore>
1.0

>  <MPO_area>
81.0

>  <TPSA>
53.51

>  <logP>
1.25

$$$$

  Mrv1722703221715202D          

 22 25  0  0  0  0            999 V2000
    0.0000    0.0000    0.0000 Cl  0  0  0  0  0  0  0  0  0  0  0  0
    0.5185    0.6416    0.0000 C   0  0  0  0  0  0  0  0  0  0  0  0
    0.2269    1.4195    0.0000 C   0  0  0  0  0  0  0  0  0  0  0  0
    1.3222    0.5120    0.0000 C   0  0  0  0  0  0  0  0  0  0  0  0
    0.7454    2.0611    0.0000 C   0  0  0  0  0  0  0  0  0  0  0  0
    1.8407    1.1537    0.0000 C   0  0  0  0  0  0  0  0  0  0  0  0
    0.3435    2.7870    0.0000 C   0  0  0  0  0  0  0  0  0  0  0  0
    1.5491    1.9315    0.0000 C   0  0  0  0  0  0  0  0  0  0  0  0
    0.6546    3.5518    0.0000 N   0  0  0  0  0  0  0  0  0  0  0  0
   -0.4861    2.7481    0.0000 C   0  0  0  0  0  0  0  0  0  0  0  0
    2.1583    2.4889    0.0000 N   0  0  0  0  0  0  0  0  0  0  0  0
    1.4389    3.7851    0.0000 C   0  0  0  0  0  0  0  0  0  0  0  0
   -0.9463    3.4416    0.0000 C   0  0  0  0  0  0  0  0  0  0  0  0
   -0.8620    2.0157    0.0000 C   0  0  0  0  0  0  0  0  0  0  0  0
    2.1065    3.3185    0.0000 C   0  0  0  0  0  0  0  0  0  0  0  0
    2.9491    2.2815    0.0000 C   0  0  0  0  0  0  0  0  0  0  0  0
   -1.7759    3.4027    0.0000 C   0  0  0  0  0  0  0  0  0  0  0  0
   -1.6916    1.9768    0.0000 C   0  0  0  0  0  0  0  0  0  0  0  0
    2.8713    3.6231    0.0000 N   0  0  0  0  0  0  0  0  0  0  0  0
    3.3898    2.9815    0.0000 N   0  0  0  0  0  0  0  0  0  0  0  0
    3.2407    1.5166    0.0000 C   0  0  0  0  0  0  0  0  0  0  0  0
   -2.1518    2.6704    0.0000 C   0  0  0  0  0  0  0  0  0  0  0  0
  1  2  1  0  0  0  0
  2  3  2  0  0  0  0
  2  4  1  0  0  0  0
  3  5  1  0  0  0  0
  4  6  2  0  0  0  0
  5  7  1  0  0  0  0
  5  8  2  0  0  0  0
  7  9  2  0  0  0  0
  7 10  1  0  0  0  0
  8 11  1  0  0  0  0
  9 12  1  0  0  0  0
 10 13  2  0  0  0  0
 10 14  1  0  0  0  0
 11 15  1  0  0  0  0
 11 16  1  0  0  0  0
 13 17  1  0  0  0  0
 14 18  2  0  0  0  0
 15 19  2  0  0  0  0
 16 20  2  0  0  0  0
 16 21  1  0  0  0  0
 17 22  2  0  0  0  0
  6  8  1  0  0  0  0
 12 15  1  0  0  0  0
 18 22  1  0  0  0  0
 19 20  1  0  0  0  0
M  END

>  <name>
Alprazolam

>  <ROTATABLE_BONDCOUNT>
1

>  <HBDScore>
1.0

>  <dipole>
4.57

>  <logD>
3.02

>  <MPOScore>
5.48

>  <logDScore>
0.49

>  <MW>
308.77

>  <charge_dist(7.4)>
0.00

>  <CNS>
TRUE

>  <ArRings>
3

>  <HBD>
0

>  <BALABAN_INDEX>
1.59

>  <bpKa>
5.01

>  <TPSAScore>
1.0

>  <MWScore>
1.0

>  <bpKaScore>
1.0

>  <logPScore>
0.99

>  <MPO_area>
82.75

>  <TPSA>
43.07

>  <logP>
3.02

$$$$

  Mrv1722703221715202D          

 18 18  0  0  0  0            999 V2000
    0.0000    0.0000    0.0000 O   0  0  0  0  0  0  0  0  0  0  0  0
    0.6974    0.4326    0.0000 C   0  0  0  0  0  0  0  0  0  0  0  0
   -0.7232    0.4003    0.0000 C   0  0  0  0  0  0  0  0  0  0  0  0
    1.4077    0.0452    0.0000 C   0  0  0  0  0  0  0  0  0  0  0  0
    0.6716    1.2592    0.0000 C   0  0  0  0  0  0  0  0  0  0  0  0
   -1.4335   -0.0194    0.0000 C   0  0  1  0  0  0  0  0  0  0  0  0
    2.1051    0.4779    0.0000 C   0  0  0  0  0  0  0  0  0  0  0  0
    1.4206   -0.7684    0.0000 C   0  0  0  0  0  0  0  0  0  0  0  0
    1.3689    1.6918    0.0000 C   0  0  0  0  0  0  0  0  0  0  0  0
   -1.4206   -0.8330    0.0000 O   0  0  0  0  0  0  0  0  0  0  0  0
   -2.1567    0.3810    0.0000 C   0  0  0  0  0  0  0  0  0  0  0  0
    2.0793    1.3043    0.0000 C   0  0  0  0  0  0  0  0  0  0  0  0
    0.7103   -1.1882    0.0000 C   0  0  0  0  0  0  0  0  0  0  0  0
   -2.8671   -0.0388    0.0000 N   0  0  0  0  0  0  0  0  0  0  0  0
    0.7232   -2.0017    0.0000 C   0  0  0  0  0  0  0  0  0  0  0  0
   -3.5902    0.3616    0.0000 C   0  0  0  0  0  0  0  0  0  0  0  0
   -4.3005   -0.0581    0.0000 C   0  0  0  0  0  0  0  0  0  0  0  0
   -3.6161    1.1882    0.0000 C   0  0  0  0  0  0  0  0  0  0  0  0
  1  2  1  0  0  0  0
  1  3  1  0  0  0  0
  2  4  2  0  0  0  0
  2  5  1  0  0  0  0
  3  6  1  0  0  0  0
  4  7  1  0  0  0  0
  4  8  1  0  0  0  0
  5  9  2  0  0  0  0
  6 10  1  1  0  0  0
  6 11  1  0  0  0  0
  7 12  2  0  0  0  0
  8 13  1  0  0  0  0
 11 14  1  0  0  0  0
 13 15  2  0  0  0  0
 14 16  1  0  0  0  0
 16 17  1  0  0  0  0
 16 18  1  0  0  0  0
  9 12  1  0  0  0  0
M  END

>  <name>
Alprenolol

>  <ROTATABLE_BONDCOUNT>
8

>  <HBDScore>
0.5

>  <dipole>
3.82

>  <logD>
0.47

>  <MPOScore>
4.665

>  <logDScore>
1.0

>  <MW>
249.354

>  <charge_dist(7.4)>
0.99

>  <CNS>
TRUE

>  <ArRings>
1

>  <HBD>
2

>  <BALABAN_INDEX>
2.22

>  <bpKa>
9.67

>  <TPSAScore>
1.0

>  <MWScore>
1.0

>  <bpKaScore>
0.16500000000000004

>  <logPScore>
1.0

>  <MPO_area>
62.46

>  <TPSA>
41.49

>  <logP>
2.69

$$$$

  Mrv1722703221715202D          

 11 13  0  0  0  0            999 V2000
    0.0000    0.0000    0.0000 N   0  0  0  0  0  0  0  0  0  0  0  0
    0.6415   -0.5132    0.0000 C   0  0  0  0  0  0  0  0  0  0  0  0
    1.4113   -0.1996    0.0000 C   0  0  0  0  0  0  0  0  0  0  0  0
    0.4989   -1.3258    0.0000 C   0  0  0  0  0  0  0  0  0  0  0  0
   -0.1568   -0.7983    0.0000 C   0  0  0  0  0  0  0  0  0  0  0  0
    2.0528   -0.7128    0.0000 C   0  0  0  0  0  0  0  0  0  0  0  0
    1.1404   -1.8390    0.0000 C   0  0  0  0  0  0  0  0  0  0  0  0
   -0.2994   -1.6109    0.0000 C   0  0  0  0  0  0  0  0  0  0  0  0
    1.9102   -1.5253    0.0000 C   0  0  0  0  0  0  0  0  0  0  0  0
    0.2281   -0.9551    0.0000 C   0  0  0  0  0  0  0  0  0  0  0  0
    0.3421   -2.1241    0.0000 C   0  0  0  0  0  0  0  0  0  0  0  0
  1  2  1  0  0  0  0
  2  3  1  0  0  0  0
  2  4  1  0  0  0  0
  2  5  1  0  0  0  0
  3  6  1  0  0  0  0
  4  7  1  0  0  0  0
  5  8  1  0  0  0  0
  6  9  1  0  0  0  0
  6 10  1  0  0  0  0
  7 11  1  0  0  0  0
  7  9  1  0  0  0  0
  8 10  1  0  0  0  0
  8 11  1  0  0  0  0
M  END

>  <name>
Amantadine

>  <ROTATABLE_BONDCOUNT>
0

>  <HBDScore>
0.8333333333333334

>  <dipole>
0.86

>  <logD>
-1.38

>  <MPOScore>
4.134333333333333

>  <logDScore>
1.0

>  <MW>
151.253

>  <charge_dist(7.4)>
1.00

>  <CNS>
TRUE

>  <ArRings>
0

>  <HBD>
1

>  <BALABAN_INDEX>
1.79

>  <bpKa>
10.71

>  <TPSAScore>
0.301

>  <MWScore>
1.0

>  <bpKaScore>
0.0

>  <logPScore>
1.0

>  <MPO_area>
51.4

>  <TPSA>
26.02

>  <logP>
1.47

$$$$

  Mrv1722703221715202D          

 17 18  0  0  0  0            999 V2000
    0.0000    0.0000    0.0000 O   0  0  0  0  0  0  0  0  0  0  0  0
   -0.6743    0.4928    0.0000 C   0  0  0  0  0  0  0  0  0  0  0  0
   -1.4329    0.1686    0.0000 N   0  0  0  0  0  0  0  0  0  0  0  0
   -0.5900    1.3227    0.0000 C   0  0  2  0  0  0  0  0  0  0  0  0
   -2.1072    0.6613    0.0000 C   0  0  0  0  0  0  0  0  0  0  0  0
    0.1945    1.1022    0.0000 C   0  0  0  0  0  0  0  0  0  0  0  0
   -1.2643    1.8155    0.0000 C   0  0  0  0  0  0  0  0  0  0  0  0
   -0.2334    2.0683    0.0000 C   0  0  0  0  0  0  0  0  0  0  0  0
   -2.8658    0.3372    0.0000 O   0  0  0  0  0  0  0  0  0  0  0  0
   -2.0229    1.4913    0.0000 C   0  0  0  0  0  0  0  0  0  0  0  0
    0.3825    0.3047    0.0000 C   0  0  0  0  0  0  0  0  0  0  0  0
    0.7845    1.6793    0.0000 C   0  0  0  0  0  0  0  0  0  0  0  0
    0.5835    2.1332    0.0000 C   0  0  0  0  0  0  0  0  0  0  0  0
    1.1671    0.0843    0.0000 C   0  0  0  0  0  0  0  0  0  0  0  0
    1.5690    1.4588    0.0000 C   0  0  0  0  0  0  0  0  0  0  0  0
    1.7571    0.6613    0.0000 C   0  0  0  0  0  0  0  0  0  0  0  0
    2.5416    0.4409    0.0000 N   0  0  0  0  0  0  0  0  0  0  0  0
  1  2  2  0  0  0  0
  2  3  1  0  0  0  0
  2  4  1  0  0  0  0
  3  5  1  0  0  0  0
  4  6  1  0  0  0  0
  4  7  1  0  0  0  0
  4  8  1  6  0  0  0
  5  9  2  0  0  0  0
  5 10  1  0  0  0  0
  6 11  2  0  0  0  0
  6 12  1  0  0  0  0
  8 13  1  0  0  0  0
 11 14  1  0  0  0  0
 12 15  2  0  0  0  0
 14 16  2  0  0  0  0
 16 17  1  0  0  0  0
  7 10  1  0  0  0  0
 15 16  1  0  0  0  0
M  END

>  <name>
Aminoglutethimide

>  <ROTATABLE_BONDCOUNT>
2

>  <HBDScore>
0.5

>  <dipole>
5.71

>  <logD>
1.30

>  <MPOScore>
5.5

>  <logDScore>
1.0

>  <MW>
232.283

>  <charge_dist(7.4)>
0.00

>  <CNS>
TRUE

>  <ArRings>
1

>  <HBD>
2

>  <BALABAN_INDEX>
2.08

>  <bpKa>
4.28

>  <TPSAScore>
1.0

>  <MWScore>
1.0

>  <bpKaScore>
1.0

>  <logPScore>
1.0

>  <MPO_area>
83.33

>  <TPSA>
72.19

>  <logP>
1.30

$$$$

  Mrv1722703221715202D          

 21 23  0  0  0  0            999 V2000
    0.0000    0.0000    0.0000 N   0  0  0  0  0  0  0  0  0  0  0  0
   -0.7921    0.2532    0.0000 C   0  0  0  0  0  0  0  0  0  0  0  0
    0.5973    0.5649    0.0000 C   0  0  0  0  0  0  0  0  0  0  0  0
    0.1753   -0.7986    0.0000 C   0  0  0  0  0  0  0  0  0  0  0  0
   -1.4024   -0.2987    0.0000 C   0  0  0  0  0  0  0  0  0  0  0  0
   -2.1946   -0.0454    0.0000 C   0  0  0  0  0  0  0  0  0  0  0  0
   -2.8049   -0.5973    0.0000 C   0  0  0  0  0  0  0  0  0  0  0  0
   -3.5775   -0.2857    0.0000 C   0  0  0  0  0  0  0  0  0  0  0  0
   -2.5711   -1.3764    0.0000 C   0  0  0  0  0  0  0  0  0  0  0  0
   -4.2982   -0.6882    0.0000 C   0  0  0  0  0  0  0  0  0  0  0  0
   -3.5840    0.5454    0.0000 C   0  0  0  0  0  0  0  0  0  0  0  0
   -3.0451   -2.0517    0.0000 C   0  0  0  0  0  0  0  0  0  0  0  0
   -1.7531   -1.4349    0.0000 C   0  0  0  0  0  0  0  0  0  0  0  0
   -5.0189   -0.2662    0.0000 C   0  0  0  0  0  0  0  0  0  0  0  0
   -4.4281   -1.4998    0.0000 C   0  0  0  0  0  0  0  0  0  0  0  0
   -4.3047    0.9674    0.0000 C   0  0  0  0  0  0  0  0  0  0  0  0
   -2.6945   -2.7919    0.0000 C   0  0  0  0  0  0  0  0  0  0  0  0
   -3.8762   -2.1037    0.0000 C   0  0  0  0  0  0  0  0  0  0  0  0
   -1.4024   -2.1751    0.0000 C   0  0  0  0  0  0  0  0  0  0  0  0
   -5.0254    0.5649    0.0000 C   0  0  0  0  0  0  0  0  0  0  0  0
   -1.8764   -2.8503    0.0000 C   0  0  0  0  0  0  0  0  0  0  0  0
  1  2  1  0  0  0  0
  1  3  1  0  0  0  0
  1  4  1  0  0  0  0
  2  5  1  0  0  0  0
  5  6  1  0  0  0  0
  6  7  2  0  0  0  0
  7  8  1  0  0  0  0
  7  9  1  0  0  0  0
  8 10  2  0  0  0  0
  8 11  1  0  0  0  0
  9 12  2  0  0  0  0
  9 13  1  0  0  0  0
 10 14  1  0  0  0  0
 10 15  1  0  0  0  0
 11 16  2  0  0  0  0
 12 17  1  0  0  0  0
 12 18  1  0  0  0  0
 13 19  2  0  0  0  0
 14 20  2  0  0  0  0
 17 21  2  0  0  0  0
 15 18  1  0  0  0  0
 16 20  1  0  0  0  0
 19 21  1  0  0  0  0
M  END

>  <name>
Amitriptyline

>  <ROTATABLE_BONDCOUNT>
3

>  <HBDScore>
1.0

>  <dipole>
0.76

>  <logD>
2.48

>  <MPOScore>
2.9750000000000005

>  <logDScore>
0.76

>  <MW>
277.411

>  <charge_dist(7.4)>
1.00

>  <CNS>
TRUE

>  <ArRings>
2

>  <HBD>
0

>  <BALABAN_INDEX>
1.48

>  <bpKa>
9.76

>  <TPSAScore>
0.0

>  <MWScore>
1.0

>  <bpKaScore>
0.1200000000000001

>  <logPScore>
0.0950000000000002

>  <MPO_area>
31.04

>  <TPSA>
3.24

>  <logP>
4.81

$$$$

  Mrv1722703221715202D          

 28 29  0  0  0  0            999 V2000
    0.0000    0.0000    0.0000 Cl  0  0  0  0  0  0  0  0  0  0  0  0
    0.1831    0.5115    0.0000 C   0  0  0  0  0  0  0  0  0  0  0  0
    0.9725    0.7514    0.0000 C   0  0  0  0  0  0  0  0  0  0  0  0
   -0.4168    1.0861    0.0000 C   0  0  0  0  0  0  0  0  0  0  0  0
    1.1619    1.5597    0.0000 C   0  0  0  0  0  0  0  0  0  0  0  0
    1.5597    0.1895    0.0000 C   0  0  2  0  0  0  0  0  0  0  0  0
   -0.2273    1.8944    0.0000 C   0  0  0  0  0  0  0  0  0  0  0  0
    0.5620    2.1344    0.0000 C   0  0  0  0  0  0  0  0  0  0  0  0
    2.3490    0.4294    0.0000 C   0  0  0  0  0  0  0  0  0  0  0  0
    1.3576   -0.6062    0.0000 C   0  0  0  0  0  0  0  0  0  0  0  0
    2.9363   -0.1326    0.0000 C   0  0  0  0  0  0  0  0  0  0  0  0
    2.5385    1.2376    0.0000 C   0  0  0  0  0  0  0  0  0  0  0  0
    1.9449   -1.1682    0.0000 C   0  0  0  0  0  0  0  0  0  0  0  0
    0.5557   -0.8336    0.0000 C   0  0  0  0  0  0  0  0  0  0  0  0
    2.7342   -0.9282    0.0000 N   0  0  0  0  0  0  0  0  0  0  0  0
    3.7256    0.1073    0.0000 C   0  0  0  0  0  0  0  0  0  0  0  0
    1.9386    1.8123    0.0000 O   0  0  0  0  0  0  0  0  0  0  0  0
    3.3278    1.4776    0.0000 O   0  0  0  0  0  0  0  0  0  0  0  0
    1.7428   -1.9639    0.0000 C   0  0  0  0  0  0  0  0  0  0  0  0
    0.1137   -0.5051    0.0000 O   0  0  0  0  0  0  0  0  0  0  0  0
    0.3536   -1.6292    0.0000 O   0  0  0  0  0  0  0  0  0  0  0  0
    4.3129   -0.4546    0.0000 O   0  0  0  0  0  0  0  0  0  0  0  0
    3.5172    2.2859    0.0000 C   0  0  0  0  0  0  0  0  0  0  0  0
   -0.4484   -1.8565    0.0000 C   0  0  0  0  0  0  0  0  0  0  0  0
    5.1022   -0.2147    0.0000 C   0  0  0  0  0  0  0  0  0  0  0  0
    4.3066    2.5258    0.0000 C   0  0  0  0  0  0  0  0  0  0  0  0
    5.6895   -0.7767    0.0000 C   0  0  0  0  0  0  0  0  0  0  0  0
    6.4788   -0.5368    0.0000 N   0  0  0  0  0  0  0  0  0  0  0  0
  1  2  1  0  0  0  0
  2  3  2  0  0  0  0
  2  4  1  0  0  0  0
  3  5  1  0  0  0  0
  6  3  1  6  0  0  0
  4  7  2  0  0  0  0
  5  8  2  0  0  0  0
  6  9  1  0  0  0  0
  6 10  1  0  0  0  0
  9 11  2  0  0  0  0
  9 12  1  0  0  0  0
 10 13  2  0  0  0  0
 10 14  1  0  0  0  0
 11 15  1  0  0  0  0
 11 16  1  0  0  0  0
 12 17  2  0  0  0  0
 12 18  1  0  0  0  0
 13 19  1  0  0  0  0
 14 20  2  0  0  0  0
 14 21  1  0  0  0  0
 16 22  1  0  0  0  0
 18 23  1  0  0  0  0
 21 24  1  0  0  0  0
 22 25  1  0  0  0  0
 23 26  1  0  0  0  0
 25 27  1  0  0  0  0
 27 28  1  0  0  0  0
  7  8  1  0  0  0  0
 13 15  1  0  0  0  0
M  END

>  <name>
Amlodipine

>  <ROTATABLE_BONDCOUNT>
10

>  <HBDScore>
0.5

>  <dipole>
6.04

>  <logD>
-0.37

>  <MPOScore>
4.09652380952381

>  <logDScore>
1.0

>  <MW>
408.88

>  <charge_dist(7.4)>
0.99

>  <CNS>
TRUE

>  <ArRings>
1

>  <HBD>
2

>  <BALABAN_INDEX>
2.21

>  <bpKa>
9.45

>  <TPSAScore>
0.6706666666666667

>  <MWScore>
0.6508571428571429

>  <bpKaScore>
0.27500000000000036

>  <logPScore>
1.0

>  <MPO_area>
47.42

>  <TPSA>
99.88

>  <logP>
1.64

$$$$

  Mrv1722703221715202D          

 22 25  0  0  0  0            999 V2000
    0.0000    0.0000    0.0000 Cl  0  0  0  0  0  0  0  0  0  0  0  0
    0.7925   -0.2292    0.0000 C   0  0  0  0  0  0  0  0  0  0  0  0
    0.9824   -1.0283    0.0000 C   0  0  0  0  0  0  0  0  0  0  0  0
    1.3885    0.3537    0.0000 C   0  0  0  0  0  0  0  0  0  0  0  0
    1.7749   -1.2575    0.0000 C   0  0  0  0  0  0  0  0  0  0  0  0
    2.1811    0.1244    0.0000 C   0  0  0  0  0  0  0  0  0  0  0  0
    1.8405   -2.0762    0.0000 C   0  0  0  0  0  0  0  0  0  0  0  0
    2.3710   -0.6746    0.0000 C   0  0  0  0  0  0  0  0  0  0  0  0
    2.5282   -2.5282    0.0000 N   0  0  0  0  0  0  0  0  0  0  0  0
    1.1200   -2.4954    0.0000 N   0  0  0  0  0  0  0  0  0  0  0  0
    3.1897   -0.7794    0.0000 O   0  0  0  0  0  0  0  0  0  0  0  0
    3.3142   -2.2662    0.0000 C   0  0  0  0  0  0  0  0  0  0  0  0
    0.3865   -2.0828    0.0000 C   0  0  0  0  0  0  0  0  0  0  0  0
    1.1265   -3.3207    0.0000 C   0  0  0  0  0  0  0  0  0  0  0  0
    3.6089   -1.4868    0.0000 C   0  0  0  0  0  0  0  0  0  0  0  0
    3.8381   -2.9015    0.0000 C   0  0  0  0  0  0  0  0  0  0  0  0
   -0.3340   -2.5020    0.0000 C   0  0  0  0  0  0  0  0  0  0  0  0
    0.4061   -3.7399    0.0000 C   0  0  0  0  0  0  0  0  0  0  0  0
    4.4210   -1.3427    0.0000 C   0  0  0  0  0  0  0  0  0  0  0  0
    4.6503   -2.7574    0.0000 C   0  0  0  0  0  0  0  0  0  0  0  0
   -0.3275   -3.3272    0.0000 N   0  0  0  0  0  0  0  0  0  0  0  0
    4.9450   -1.9780    0.0000 C   0  0  0  0  0  0  0  0  0  0  0  0
  1  2  1  0  0  0  0
  2  3  2  0  0  0  0
  2  4  1  0  0  0  0
  3  5  1  0  0  0  0
  4  6  2  0  0  0  0
  5  7  1  0  0  0  0
  5  8  2  0  0  0  0
  7  9  2  0  0  0  0
  7 10  1  0  0  0  0
  8 11  1  0  0  0  0
  9 12  1  0  0  0  0
 10 13  1  0  0  0  0
 10 14  1  0  0  0  0
 11 15  1  0  0  0  0
 12 16  2  0  0  0  0
 13 17  1  0  0  0  0
 14 18  1  0  0  0  0
 15 19  2  0  0  0  0
 16 20  1  0  0  0  0
 17 21  1  0  0  0  0
 19 22  1  0  0  0  0
  6  8  1  0  0  0  0
 12 15  1  0  0  0  0
 18 21  1  0  0  0  0
 20 22  2  0  0  0  0
M  END

>  <name>
Amoxapine

>  <ROTATABLE_BONDCOUNT>
0

>  <HBDScore>
0.8333333333333334

>  <dipole>
1.78

>  <logD>
1.64

>  <MPOScore>
5.221333333333333

>  <logDScore>
1.0

>  <MW>
313.79

>  <charge_dist(7.4)>
0.96

>  <CNS>
TRUE

>  <ArRings>
2

>  <HBD>
1

>  <BALABAN_INDEX>
1.57

>  <bpKa>
8.83

>  <TPSAScore>
0.843

>  <MWScore>
1.0

>  <bpKaScore>
0.585

>  <logPScore>
0.96

>  <MPO_area>
75.74

>  <TPSA>
36.86

>  <logP>
3.08

$$$$

  Mrv1722703221715202D          

 10 10  0  0  0  0            999 V2000
    0.0000    0.0000    0.0000 N   0  0  0  0  0  0  0  0  0  0  0  0
   -0.1606   -0.8095    0.0000 C   0  0  2  0  0  0  0  0  0  0  0  0
    0.4626   -1.3492    0.0000 C   0  0  0  0  0  0  0  0  0  0  0  0
   -0.9509   -1.0729    0.0000 C   0  0  0  0  0  0  0  0  0  0  0  0
    1.2400   -1.0729    0.0000 C   0  0  0  0  0  0  0  0  0  0  0  0
    1.3878   -0.2506    0.0000 C   0  0  0  0  0  0  0  0  0  0  0  0
    1.8632   -1.6126    0.0000 C   0  0  0  0  0  0  0  0  0  0  0  0
    2.1651    0.0257    0.0000 C   0  0  0  0  0  0  0  0  0  0  0  0
    2.6405   -1.3363    0.0000 C   0  0  0  0  0  0  0  0  0  0  0  0
    2.7883   -0.5140    0.0000 C   0  0  0  0  0  0  0  0  0  0  0  0
  2  1  1  6  0  0  0
  2  3  1  0  0  0  0
  2  4  1  0  0  0  0
  3  5  1  0  0  0  0
  5  6  2  0  0  0  0
  5  7  1  0  0  0  0
  6  8  1  0  0  0  0
  7  9  2  0  0  0  0
  8 10  2  0  0  0  0
  9 10  1  0  0  0  0
M  END

>  <name>
Amphetamine

>  <ROTATABLE_BONDCOUNT>
2

>  <HBDScore>
0.8333333333333334

>  <dipole>
0.87

>  <logD>
-0.67

>  <MPOScore>
4.134333333333333

>  <logDScore>
1.0

>  <MW>
135.210

>  <charge_dist(7.4)>
1.00

>  <CNS>
TRUE

>  <ArRings>
1

>  <HBD>
1

>  <BALABAN_INDEX>
2.13

>  <bpKa>
10.01

>  <TPSAScore>
0.301

>  <MWScore>
1.0

>  <bpKaScore>
0.0

>  <logPScore>
1.0

>  <MPO_area>
51.4

>  <TPSA>
26.02

>  <logP>
1.80

$$$$

  Mrv1722703221715202D          

 26 28  0  0  0  0            999 V2000
    0.0000    0.0000    0.0000 O   0  0  0  0  0  0  0  0  0  0  0  0
   -0.7355   -0.3677    0.0000 C   0  0  0  0  0  0  0  0  0  0  0  0
   -0.7806   -1.1806    0.0000 O   0  0  0  0  0  0  0  0  0  0  0  0
   -1.4322    0.0838    0.0000 C   0  0  0  0  0  0  0  0  0  0  0  0
   -0.0968   -1.6193    0.0000 C   0  0  0  0  0  0  0  0  0  0  0  0
   -0.8838    0.6903    0.0000 C   0  0  0  0  0  0  0  0  0  0  0  0
   -1.9354    0.7419    0.0000 C   0  0  0  0  0  0  0  0  0  0  0  0
   -1.7548   -0.6645    0.0000 C   0  0  0  0  0  0  0  0  0  0  0  0
   -0.1419   -2.4322    0.0000 C   0  0  0  0  0  0  0  0  0  0  0  0
   -0.0903    0.5161    0.0000 C   0  0  0  0  0  0  0  0  0  0  0  0
   -1.1355    1.4774    0.0000 C   0  0  0  0  0  0  0  0  0  0  0  0
   -2.7547    0.6452    0.0000 C   0  0  0  0  0  0  0  0  0  0  0  0
   -2.5741   -0.7613    0.0000 C   0  0  0  0  0  0  0  0  0  0  0  0
    0.4580    1.1225    0.0000 C   0  0  0  0  0  0  0  0  0  0  0  0
   -0.5871    2.0838    0.0000 C   0  0  0  0  0  0  0  0  0  0  0  0
   -3.0773   -0.1032    0.0000 N   0  0  0  0  0  0  0  0  0  0  0  0
    0.2065    1.9096    0.0000 C   0  0  0  0  0  0  0  0  0  0  0  0
   -3.8966   -0.2000    0.0000 C   0  0  0  0  0  0  0  0  0  0  0  0
   -4.3999    0.4580    0.0000 C   0  0  0  0  0  0  0  0  0  0  0  0
   -5.2192    0.3613    0.0000 C   0  0  0  0  0  0  0  0  0  0  0  0
   -5.7224    1.0193    0.0000 C   0  0  0  0  0  0  0  0  0  0  0  0
   -5.5418   -0.3871    0.0000 C   0  0  0  0  0  0  0  0  0  0  0  0
   -6.5417    0.9225    0.0000 C   0  0  0  0  0  0  0  0  0  0  0  0
   -6.3611   -0.4838    0.0000 C   0  0  0  0  0  0  0  0  0  0  0  0
   -6.8643    0.1742    0.0000 C   0  0  0  0  0  0  0  0  0  0  0  0
   -7.6836    0.0774    0.0000 N   0  0  0  0  0  0  0  0  0  0  0  0
  1  2  2  0  0  0  0
  2  3  1  0  0  0  0
  2  4  1  0  0  0  0
  3  5  1  0  0  0  0
  4  6  1  0  0  0  0
  4  7  1  0  0  0  0
  4  8  1  0  0  0  0
  5  9  1  0  0  0  0
  6 10  2  0  0  0  0
  6 11  1  0  0  0  0
  7 12  1  0  0  0  0
  8 13  1  0  0  0  0
 10 14  1  0  0  0  0
 11 15  2  0  0  0  0
 12 16  1  0  0  0  0
 14 17  2  0  0  0  0
 16 18  1  0  0  0  0
 18 19  1  0  0  0  0
 19 20  1  0  0  0  0
 20 21  2  0  0  0  0
 20 22  1  0  0  0  0
 21 23  1  0  0  0  0
 22 24  2  0  0  0  0
 23 25  2  0  0  0  0
 25 26  1  0  0  0  0
 13 16  1  0  0  0  0
 15 17  1  0  0  0  0
 24 25  1  0  0  0  0
M  END

>  <name>
Anileridine

>  <ROTATABLE_BONDCOUNT>
7

>  <HBDScore>
0.8333333333333334

>  <dipole>
5.85

>  <logD>
2.15

>  <MPOScore>
4.998333333333333

>  <logDScore>
0.925

>  <MW>
352.478

>  <charge_dist(7.4)>
0.97

>  <CNS>
TRUE

>  <ArRings>
2

>  <HBD>
1

>  <BALABAN_INDEX>
1.51

>  <bpKa>
8.88

>  <TPSAScore>
1.0

>  <MWScore>
1.0

>  <bpKaScore>
0.5599999999999996

>  <logPScore>
0.6799999999999999

>  <MPO_area>
70.06

>  <TPSA>
55.56

>  <logP>
3.64

$$$$

  Mrv1722703221715202D          

 16 17  0  0  0  0            999 V2000
    0.0000    0.0000    0.0000 O   0  0  0  0  0  0  0  0  0  0  0  0
    0.3302    0.7639    0.0000 C   0  0  0  0  0  0  0  0  0  0  0  0
    1.1329    0.9387    0.0000 N   0  0  0  0  0  0  0  0  0  0  0  0
   -0.0842    1.4890    0.0000 C   0  0  0  0  0  0  0  0  0  0  0  0
    1.7414    0.3884    0.0000 C   0  0  0  0  0  0  0  0  0  0  0  0
    1.2170    1.7673    0.0000 C   0  0  0  0  0  0  0  0  0  0  0  0
    0.4661    2.1104    0.0000 C   0  0  0  0  0  0  0  0  0  0  0  0
    1.5601   -0.4143    0.0000 O   0  0  0  0  0  0  0  0  0  0  0  0
    2.5247    0.6474    0.0000 C   0  0  0  0  0  0  0  0  0  0  0  0
    3.1333    0.0971    0.0000 C   0  0  0  0  0  0  0  0  0  0  0  0
    2.6930    1.4631    0.0000 C   0  0  0  0  0  0  0  0  0  0  0  0
    3.9166    0.3560    0.0000 C   0  0  0  0  0  0  0  0  0  0  0  0
    3.4764    1.7220    0.0000 C   0  0  0  0  0  0  0  0  0  0  0  0
    4.0849    1.1718    0.0000 C   0  0  0  0  0  0  0  0  0  0  0  0
    4.8682    1.4307    0.0000 O   0  0  0  0  0  0  0  0  0  0  0  0
    5.4767    0.8804    0.0000 C   0  0  0  0  0  0  0  0  0  0  0  0
  1  2  2  0  0  0  0
  2  3  1  0  0  0  0
  2  4  1  0  0  0  0
  3  5  1  0  0  0  0
  3  6  1  0  0  0  0
  4  7  1  0  0  0  0
  5  8  2  0  0  0  0
  5  9  1  0  0  0  0
  9 10  2  0  0  0  0
  9 11  1  0  0  0  0
 10 12  1  0  0  0  0
 11 13  2  0  0  0  0
 12 14  2  0  0  0  0
 14 15  1  0  0  0  0
 15 16  1  0  0  0  0
  6  7  1  0  0  0  0
 13 14  1  0  0  0  0
M  END

>  <name>
Aniracetam

>  <ROTATABLE_BONDCOUNT>
2

>  <HBDScore>
1.0

>  <dipole>
5.62

>  <logD>
1.11

>  <MPOScore>
6.0

>  <logDScore>
1.0

>  <MW>
219.240

>  <charge_dist(7.4)>
0.00

>  <CNS>
TRUE

>  <ArRings>
1

>  <HBD>
0

>  <BALABAN_INDEX>
1.62

>  <bpKa>
-4.79

>  <TPSAScore>
1.0

>  <MWScore>
1.0

>  <bpKaScore>
1.0

>  <logPScore>
1.0

>  <MPO_area>
100.0

>  <TPSA>
46.61

>  <logP>
1.11

$$$$

  Mrv1722703221715202D          

 20 23  0  0  0  0            999 V2000
    0.0000    0.0000    0.0000 O   0  0  0  0  0  0  0  0  0  0  0  0
    0.0969    0.8273    0.0000 C   0  0  0  0  0  0  0  0  0  0  0  0
    0.8532    1.1570    0.0000 C   0  0  0  0  0  0  0  0  0  0  0  0
   -0.5688    1.3315    0.0000 C   0  0  0  0  0  0  0  0  0  0  0  0
    1.5060    0.6657    0.0000 C   0  0  0  0  0  0  0  0  0  0  0  0
    0.9502    1.9844    0.0000 C   0  0  0  0  0  0  0  0  0  0  0  0
   -1.3380    1.0148    0.0000 O   0  0  0  0  0  0  0  0  0  0  0  0
   -0.4718    2.1589    0.0000 C   0  0  0  0  0  0  0  0  0  0  0  0
    2.2623    0.9954    0.0000 C   0  0  0  0  0  0  0  0  0  0  0  0
    1.3961   -0.1487    0.0000 C   0  0  0  0  0  0  0  0  0  0  0  0
    0.2844    2.4885    0.0000 C   0  0  0  0  0  0  0  0  0  0  0  0
    1.7064    2.3140    0.0000 C   0  0  0  0  0  0  0  0  0  0  0  0
    2.9151    0.5042    0.0000 C   0  0  0  0  0  0  0  0  0  0  0  0
    2.3593    1.8228    0.0000 C   0  0  2  0  0  0  0  0  0  0  0  0
    2.0490   -0.6399    0.0000 C   0  0  0  0  0  0  0  0  0  0  0  0
    2.8053   -0.3103    0.0000 C   0  0  0  0  0  0  0  0  0  0  0  0
    3.6714    0.8338    0.0000 C   0  0  0  0  0  0  0  0  0  0  0  0
    3.1155    2.1524    0.0000 N   0  0  0  0  0  0  0  0  0  0  0  0
    3.7683    1.6612    0.0000 C   0  0  0  0  0  0  0  0  0  0  0  0
    3.2124    2.9798    0.0000 C   0  0  0  0  0  0  0  0  0  0  0  0
  1  2  1  0  0  0  0
  2  3  2  0  0  0  0
  2  4  1  0  0  0  0
  3  5  1  0  0  0  0
  3  6  1  0  0  0  0
  4  7  1  0  0  0  0
  4  8  2  0  0  0  0
  5  9  2  0  0  0  0
  5 10  1  0  0  0  0
  6 11  2  0  0  0  0
  6 12  1  0  0  0  0
  9 13  1  0  0  0  0
  9 14  1  0  0  0  0
 10 15  2  0  0  0  0
 13 16  2  0  0  0  0
 13 17  1  0  0  0  0
 14 18  1  6  0  0  0
 17 19  1  0  0  0  0
 18 20  1  0  0  0  0
  8 11  1  0  0  0  0
 12 14  1  0  0  0  0
 15 16  1  0  0  0  0
 18 19  1  0  0  0  0
M  END

>  <name>
Apomorphine

>  <ROTATABLE_BONDCOUNT>
0

>  <HBDScore>
0.5

>  <dipole>
4.09

>  <logD>
2.58

>  <MPOScore>
5.21

>  <logDScore>
0.71

>  <MW>
267.328

>  <charge_dist(7.4)>
0.66

>  <CNS>
TRUE

>  <ArRings>
2

>  <HBD>
2

>  <BALABAN_INDEX>
1.45

>  <bpKa>
7.72

>  <TPSAScore>
1.0

>  <MWScore>
1.0

>  <bpKaScore>
1.0

>  <logPScore>
1.0

>  <MPO_area>
76.08

>  <TPSA>
43.70

>  <logP>
2.88

$$$$

  Mrv1722703221715202D          

 37 40  0  0  0  0            999 V2000
    0.0000    0.0000    0.0000 F   0  0  0  0  0  0  0  0  0  0  0  0
   -0.1165    0.8221    0.0000 C   0  0  0  0  0  0  0  0  0  0  0  0
   -0.8869    1.1458    0.0000 C   0  0  0  0  0  0  0  0  0  0  0  0
    0.5308    1.3335    0.0000 C   0  0  0  0  0  0  0  0  0  0  0  0
   -1.0034    1.9679    0.0000 C   0  0  0  0  0  0  0  0  0  0  0  0
    0.4143    2.1557    0.0000 C   0  0  0  0  0  0  0  0  0  0  0  0
   -0.3560    2.4794    0.0000 C   0  0  0  0  0  0  0  0  0  0  0  0
   -0.4725    3.3015    0.0000 C   0  0  2  0  0  0  0  0  0  0  0  0
   -1.2429    3.6252    0.0000 N   0  0  0  0  0  0  0  0  0  0  0  0
    0.1748    3.8129    0.0000 C   0  0  2  0  0  0  0  0  0  0  0  0
   -1.3594    4.4473    0.0000 C   0  0  0  0  0  0  0  0  0  0  0  0
   -1.9032    3.1267    0.0000 C   0  0  0  0  0  0  0  0  0  0  0  0
    0.0583    4.6350    0.0000 O   0  0  0  0  0  0  0  0  0  0  0  0
    0.9322    3.5022    0.0000 O   0  0  0  0  0  0  0  0  0  0  0  0
   -0.7121    4.9587    0.0000 C   0  0  0  0  0  0  0  0  0  0  0  0
   -2.6735    3.4504    0.0000 C   0  0  0  0  0  0  0  0  0  0  0  0
    1.5795    4.0136    0.0000 C   0  0  1  0  0  0  0  0  0  0  0  0
   -3.3857    3.0231    0.0000 N   0  0  0  0  0  0  0  0  0  0  0  0
   -2.8743    4.2596    0.0000 N   0  0  0  0  0  0  0  0  0  0  0  0
    2.3370    3.7028    0.0000 C   0  0  0  0  0  0  0  0  0  0  0  0
    1.4630    4.8357    0.0000 C   0  0  0  0  0  0  0  0  0  0  0  0
   -4.0201    3.5669    0.0000 C   0  0  0  0  0  0  0  0  0  0  0  0
   -3.7028    4.3308    0.0000 N   0  0  0  0  0  0  0  0  0  0  0  0
    2.4405    2.8937    0.0000 C   0  0  0  0  0  0  0  0  0  0  0  0
    2.9843    4.2142    0.0000 C   0  0  0  0  0  0  0  0  0  0  0  0
   -4.8292    3.3791    0.0000 O   0  0  0  0  0  0  0  0  0  0  0  0
    3.1979    2.5829    0.0000 C   0  0  0  0  0  0  0  0  0  0  0  0
    3.7417    3.9035    0.0000 C   0  0  0  0  0  0  0  0  0  0  0  0
    3.8452    3.0943    0.0000 C   0  0  0  0  0  0  0  0  0  0  0  0
    3.3015    1.7738    0.0000 C   0  0  0  0  0  0  0  0  0  0  0  0
    4.3890    4.4149    0.0000 C   0  0  0  0  0  0  0  0  0  0  0  0
    3.4051    0.9645    0.0000 F   0  0  0  0  0  0  0  0  0  0  0  0
    2.4794    1.6701    0.0000 F   0  0  0  0  0  0  0  0  0  0  0  0
    4.1107    1.8903    0.0000 F   0  0  0  0  0  0  0  0  0  0  0  0
    5.0364    4.9263    0.0000 F   0  0  0  0  0  0  0  0  0  0  0  0
    4.8875    3.7676    0.0000 F   0  0  0  0  0  0  0  0  0  0  0  0
    3.8776    5.0752    0.0000 F   0  0  0  0  0  0  0  0  0  0  0  0
  1  2  1  0  0  0  0
  2  3  2  0  0  0  0
  2  4  1  0  0  0  0
  3  5  1  0  0  0  0
  4  6  2  0  0  0  0
  5  7  2  0  0  0  0
  8  7  1  6  0  0  0
  8  9  1  0  0  0  0
  8 10  1  0  0  0  0
  9 11  1  0  0  0  0
  9 12  1  0  0  0  0
 10 13  1  0  0  0  0
 10 14  1  6  0  0  0
 11 15  1  0  0  0  0
 12 16  1  0  0  0  0
 17 14  1  6  0  0  0
 16 18  2  0  0  0  0
 16 19  1  0  0  0  0
 17 20  1  0  0  0  0
 17 21  1  0  0  0  0
 18 22  1  0  0  0  0
 19 23  1  0  0  0  0
 20 24  2  0  0  0  0
 20 25  1  0  0  0  0
 22 26  2  0  0  0  0
 24 27  1  0  0  0  0
 25 28  2  0  0  0  0
 27 29  2  0  0  0  0
 27 30  1  0  0  0  0
 28 31  1  0  0  0  0
 30 32  1  0  0  0  0
 30 33  1  0  0  0  0
 30 34  1  0  0  0  0
 31 35  1  0  0  0  0
 31 36  1  0  0  0  0
 31 37  1  0  0  0  0
  6  7  1  0  0  0  0
 13 15  1  0  0  0  0
 22 23  1  0  0  0  0
 28 29  1  0  0  0  0
M  END

>  <name>
Aprepitant

>  <ROTATABLE_BONDCOUNT>
8

>  <HBDScore>
0.5

>  <dipole>
6.98

>  <logD>
4.34

>  <MPOScore>
2.74

>  <logDScore>
0.0

>  <MW>
534.435

>  <charge_dist(7.4)>
0.56

>  <CNS>
TRUE

>  <ArRings>
3

>  <HBD>
2

>  <BALABAN_INDEX>
1.49

>  <bpKa>
3.94

>  <TPSAScore>
1.0

>  <MWScore>
0.0

>  <bpKaScore>
1.0

>  <logPScore>
0.2400000000000002

>  <MPO_area>
27.0

>  <TPSA>
75.19

>  <logP>
4.52

$$$$

  Mrv1722703221715202D          

 30 33  0  0  0  0            999 V2000
    0.0000    0.0000    0.0000 Cl  0  0  0  0  0  0  0  0  0  0  0  0
    0.0065    0.8330    0.0000 C   0  0  0  0  0  0  0  0  0  0  0  0
   -0.7094    1.2626    0.0000 C   0  0  0  0  0  0  0  0  0  0  0  0
    0.7224    1.2430    0.0000 C   0  0  0  0  0  0  0  0  0  0  0  0
   -1.4383    0.8656    0.0000 Cl  0  0  0  0  0  0  0  0  0  0  0  0
   -0.7029    2.0956    0.0000 C   0  0  0  0  0  0  0  0  0  0  0  0
    1.4253    0.8265    0.0000 N   0  0  0  0  0  0  0  0  0  0  0  0
    0.7289    2.0761    0.0000 C   0  0  0  0  0  0  0  0  0  0  0  0
    0.0130    2.5056    0.0000 C   0  0  0  0  0  0  0  0  0  0  0  0
    1.4058    0.0065    0.0000 C   0  0  0  0  0  0  0  0  0  0  0  0
    2.1412    1.2365    0.0000 C   0  0  0  0  0  0  0  0  0  0  0  0
    2.1086   -0.4100    0.0000 C   0  0  0  0  0  0  0  0  0  0  0  0
    2.8440    0.8200    0.0000 C   0  0  0  0  0  0  0  0  0  0  0  0
    2.8245    0.0000    0.0000 N   0  0  0  0  0  0  0  0  0  0  0  0
    3.5274   -0.4165    0.0000 C   0  0  0  0  0  0  0  0  0  0  0  0
    4.2433   -0.0065    0.0000 C   0  0  0  0  0  0  0  0  0  0  0  0
    4.9461   -0.4230    0.0000 C   0  0  0  0  0  0  0  0  0  0  0  0
    5.6621   -0.0130    0.0000 C   0  0  0  0  0  0  0  0  0  0  0  0
    6.3649   -0.4295    0.0000 O   0  0  0  0  0  0  0  0  0  0  0  0
    7.0808   -0.0195    0.0000 C   0  0  0  0  0  0  0  0  0  0  0  0
    7.0873    0.8135    0.0000 C   0  0  0  0  0  0  0  0  0  0  0  0
    7.7837   -0.4361    0.0000 C   0  0  0  0  0  0  0  0  0  0  0  0
    7.8032    1.2235    0.0000 C   0  0  0  0  0  0  0  0  0  0  0  0
    8.4996   -0.0260    0.0000 C   0  0  0  0  0  0  0  0  0  0  0  0
    7.8097    2.0565    0.0000 N   0  0  0  0  0  0  0  0  0  0  0  0
    8.5061    0.8070    0.0000 C   0  0  0  0  0  0  0  0  0  0  0  0
    8.5256    2.4666    0.0000 C   0  0  0  0  0  0  0  0  0  0  0  0
    9.2220    1.2170    0.0000 C   0  0  0  0  0  0  0  0  0  0  0  0
    8.5321    3.2996    0.0000 O   0  0  0  0  0  0  0  0  0  0  0  0
    9.2285    2.0501    0.0000 C   0  0  0  0  0  0  0  0  0  0  0  0
  1  2  1  0  0  0  0
  2  3  2  0  0  0  0
  2  4  1  0  0  0  0
  3  5  1  0  0  0  0
  3  6  1  0  0  0  0
  4  7  1  0  0  0  0
  4  8  2  0  0  0  0
  6  9  2  0  0  0  0
  7 10  1  0  0  0  0
  7 11  1  0  0  0  0
 10 12  1  0  0  0  0
 11 13  1  0  0  0  0
 12 14  1  0  0  0  0
 14 15  1  0  0  0  0
 15 16  1  0  0  0  0
 16 17  1  0  0  0  0
 17 18  1  0  0  0  0
 18 19  1  0  0  0  0
 19 20  1  0  0  0  0
 20 21  2  0  0  0  0
 20 22  1  0  0  0  0
 21 23  1  0  0  0  0
 22 24  2  0  0  0  0
 23 25  1  0  0  0  0
 23 26  2  0  0  0  0
 25 27  1  0  0  0  0
 26 28  1  0  0  0  0
 27 29  2  0  0  0  0
 27 30  1  0  0  0  0
  8  9  1  0  0  0  0
 13 14  1  0  0  0  0
 24 26  1  0  0  0  0
 28 30  1  0  0  0  0
M  END

>  <name>
Aripiprazole

>  <ROTATABLE_BONDCOUNT>
7

>  <HBDScore>
0.8333333333333334

>  <dipole>
4.24

>  <logD>
4.57

>  <MPOScore>
3.2519761904761904

>  <logDScore>
0.0

>  <MW>
448.39

>  <charge_dist(7.4)>
0.54

>  <CNS>
TRUE

>  <ArRings>
2

>  <HBD>
1

>  <BALABAN_INDEX>
0.96

>  <bpKa>
7.46

>  <TPSAScore>
1.0

>  <MWScore>
0.36864285714285727

>  <bpKaScore>
1.0

>  <logPScore>
0.04999999999999982

>  <MPO_area>
35.98

>  <TPSA>
44.81

>  <logP>
4.90

$$$$

  Mrv1722703221715202D          

 19 20  0  0  0  0            999 V2000
    0.0000    0.0000    0.0000 S   0  0  2  0  0  0  0  0  0  0  0  0
    0.1829   -0.7945    0.0000 O   0  0  0  0  0  0  0  0  0  0  0  0
    0.5928    0.5738    0.0000 C   0  0  0  0  0  0  0  0  0  0  0  0
   -0.7945    0.2396    0.0000 C   0  0  0  0  0  0  0  0  0  0  0  0
    1.3747    0.3468    0.0000 C   0  0  0  0  0  0  0  0  0  0  0  0
    0.3973    1.3810    0.0000 C   0  0  0  0  0  0  0  0  0  0  0  0
   -1.3999   -0.3216    0.0000 C   0  0  0  0  0  0  0  0  0  0  0  0
    1.5576   -0.4477    0.0000 C   0  0  0  0  0  0  0  0  0  0  0  0
    1.9674    0.9206    0.0000 C   0  0  0  0  0  0  0  0  0  0  0  0
    0.9900    1.9548    0.0000 C   0  0  0  0  0  0  0  0  0  0  0  0
   -0.3973    1.6206    0.0000 C   0  0  0  0  0  0  0  0  0  0  0  0
   -1.2170   -1.1161    0.0000 O   0  0  0  0  0  0  0  0  0  0  0  0
   -2.1945   -0.0820    0.0000 N   0  0  0  0  0  0  0  0  0  0  0  0
    2.3395   -0.6748    0.0000 C   0  0  0  0  0  0  0  0  0  0  0  0
    2.7493    0.6936    0.0000 C   0  0  0  0  0  0  0  0  0  0  0  0
    0.7945    2.7620    0.0000 C   0  0  0  0  0  0  0  0  0  0  0  0
   -0.5928    2.4278    0.0000 C   0  0  0  0  0  0  0  0  0  0  0  0
    2.9322   -0.1009    0.0000 C   0  0  0  0  0  0  0  0  0  0  0  0
    0.0000    3.0016    0.0000 C   0  0  0  0  0  0  0  0  0  0  0  0
  1  2  2  0  0  0  0
  1  3  1  0  0  0  0
  1  4  1  1  0  0  0
  3  5  1  0  0  0  0
  3  6  1  0  0  0  0
  4  7  1  0  0  0  0
  5  8  2  0  0  0  0
  5  9  1  0  0  0  0
  6 10  2  0  0  0  0
  6 11  1  0  0  0  0
  7 12  2  0  0  0  0
  7 13  1  0  0  0  0
  8 14  1  0  0  0  0
  9 15  2  0  0  0  0
 10 16  1  0  0  0  0
 11 17  2  0  0  0  0
 14 18  2  0  0  0  0
 16 19  2  0  0  0  0
 15 18  1  0  0  0  0
 17 19  1  0  0  0  0
M  END

>  <name>
Armodafinil

>  <ROTATABLE_BONDCOUNT>
5

>  <HBDScore>
0.8333333333333334

>  <dipole>
5.91

>  <logD>
1.52

>  <MPOScore>
5.833333333333333

>  <logDScore>
1.0

>  <MW>
273.35

>  <charge_dist(7.4)>
-0.04

>  <CNS>
TRUE

>  <ArRings>
2

>  <HBD>
1

>  <BALABAN_INDEX>
1.81

>  <bpKa>
-4.36

>  <TPSAScore>
1.0

>  <MWScore>
1.0

>  <bpKaScore>
1.0

>  <logPScore>
1.0

>  <MPO_area>
94.44

>  <TPSA>
60.16

>  <logP>
1.53

$$$$

  Mrv1722703221715202D          

 19 20  0  0  0  0            999 V2000
    0.0000    0.0000    0.0000 O   0  0  0  0  0  0  0  0  0  0  0  0
    0.6909    0.4391    0.0000 C   0  0  0  0  0  0  0  0  0  0  0  0
   -0.7297    0.3939    0.0000 C   0  0  2  0  0  0  0  0  0  0  0  0
    1.4077    0.0581    0.0000 C   0  0  0  0  0  0  0  0  0  0  0  0
    0.6587    1.2657    0.0000 C   0  0  0  0  0  0  0  0  0  0  0  0
   -0.7620    1.2204    0.0000 C   0  0  0  0  0  0  0  0  0  0  0  0
   -1.4335   -0.0323    0.0000 C   0  0  0  0  0  0  0  0  0  0  0  0
    2.0987    0.4972    0.0000 C   0  0  0  0  0  0  0  0  0  0  0  0
    1.4271   -0.7555    0.0000 C   0  0  0  0  0  0  0  0  0  0  0  0
    1.3496    1.7048    0.0000 C   0  0  0  0  0  0  0  0  0  0  0  0
   -0.0710    1.6596    0.0000 C   0  0  0  0  0  0  0  0  0  0  0  0
   -1.4917    1.6143    0.0000 C   0  0  0  0  0  0  0  0  0  0  0  0
   -2.1632    0.3616    0.0000 C   0  0  0  0  0  0  0  0  0  0  0  0
    2.0664    1.3237    0.0000 C   0  0  0  0  0  0  0  0  0  0  0  0
   -0.1033    2.4861    0.0000 C   0  0  0  0  0  0  0  0  0  0  0  0
   -1.5239    2.4409    0.0000 C   0  0  0  0  0  0  0  0  0  0  0  0
   -2.8671   -0.0646    0.0000 N   0  0  0  0  0  0  0  0  0  0  0  0
   -0.8330    2.8800    0.0000 C   0  0  0  0  0  0  0  0  0  0  0  0
   -3.5968    0.3293    0.0000 C   0  0  0  0  0  0  0  0  0  0  0  0
  1  2  1  0  0  0  0
  3  1  1  1  0  0  0
  2  4  2  0  0  0  0
  2  5  1  0  0  0  0
  3  6  1  0  0  0  0
  3  7  1  0  0  0  0
  4  8  1  0  0  0  0
  4  9  1  0  0  0  0
  5 10  2  0  0  0  0
  6 11  2  0  0  0  0
  6 12  1  0  0  0  0
  7 13  1  0  0  0  0
  8 14  2  0  0  0  0
 11 15  1  0  0  0  0
 12 16  2  0  0  0  0
 13 17  1  0  0  0  0
 15 18  2  0  0  0  0
 17 19  1  0  0  0  0
 10 14  1  0  0  0  0
 16 18  1  0  0  0  0
M  END

>  <name>
Atomoxetine

>  <ROTATABLE_BONDCOUNT>
6

>  <HBDScore>
0.8333333333333334

>  <dipole>
4.23

>  <logD>
1.46

>  <MPOScore>
3.591333333333333

>  <logDScore>
1.0

>  <MW>
255.361

>  <charge_dist(7.4)>
1.00

>  <CNS>
TRUE

>  <ArRings>
2

>  <HBD>
1

>  <BALABAN_INDEX>
1.69

>  <bpKa>
9.8

>  <TPSAScore>
0.06300000000000008

>  <MWScore>
1.0

>  <bpKaScore>
0.09999999999999964

>  <logPScore>
0.595

>  <MPO_area>
40.97

>  <TPSA>
21.26

>  <logP>
3.81

$$$$

  Mrv1722703221715202D          

 21 23  0  0  1  0            999 V2000
    0.0000    0.0000    0.0000 O   0  0  0  0  0  0  0  0  0  0  0  0
   -0.0838   -0.8119    0.0000 C   0  0  0  0  0  0  0  0  0  0  0  0
    0.5799   -1.2823    0.0000 O   0  0  0  0  0  0  0  0  0  0  0  0
   -0.8377   -1.1470    0.0000 C   0  0  0  0  0  0  0  0  0  0  0  0
    1.3210   -0.9343    0.0000 C   0  0  2  0  0  0  0  0  0  0  0  0
   -1.5142   -0.6637    0.0000 C   0  0  0  0  0  0  0  0  0  0  0  0
   -0.9214   -1.9589    0.0000 C   0  0  0  0  0  0  0  0  0  0  0  0
    1.9846   -1.4047    0.0000 C   0  0  0  0  0  0  0  0  0  0  0  0
    1.3918   -0.1095    0.0000 C   0  0  0  0  0  0  0  0  0  0  0  0
   -1.4434    0.1611    0.0000 C   0  0  0  0  0  0  0  0  0  0  0  0
   -2.2682   -0.9987    0.0000 C   0  0  0  0  0  0  0  0  0  0  0  0
   -1.6754   -2.2939    0.0000 O   0  0  0  0  0  0  0  0  0  0  0  0
    2.7257   -1.0568    0.0000 C   0  0  1  0  0  0  0  0  0  0  0  0
    2.1715    0.1546    0.0000 C   0  0  2  0  0  0  0  0  0  0  0  0
   -2.1200    0.6444    0.0000 C   0  0  0  0  0  0  0  0  0  0  0  0
   -2.9448   -0.5155    0.0000 C   0  0  0  0  0  0  0  0  0  0  0  0
    2.0040   -0.6444    0.0000 N   0  0  0  0  0  0  0  0  0  0  0  0
    3.3249   -0.4961    0.0000 C   0  0  0  0  0  0  0  0  0  0  0  0
    2.9834    0.2577    0.0000 C   0  0  0  0  0  0  0  0  0  0  0  0
   -2.8739    0.3093    0.0000 C   0  0  0  0  0  0  0  0  0  0  0  0
    1.6560   -0.9086    0.0000 C   0  0  0  0  0  0  0  0  0  0  0  0
  1  2  2  0  0  0  0
  2  3  1  0  0  0  0
  2  4  1  0  0  0  0
  5  3  1  1  0  0  0
  4  6  1  0  0  0  0
  4  7  1  0  0  0  0
  5  8  1  0  0  0  0
  5  9  1  0  0  0  0
  6 10  2  0  0  0  0
  6 11  1  0  0  0  0
  7 12  1  0  0  0  0
  8 13  1  0  0  0  0
  9 14  1  0  0  0  0
 10 15  1  0  0  0  0
 11 16  2  0  0  0  0
 13 17  1  6  0  0  0
 13 18  1  0  0  0  0
 14 19  1  0  0  0  0
 15 20  2  0  0  0  0
 17 21  1  0  0  0  0
 14 17  1  6  0  0  0
 16 20  1  0  0  0  0
 18 19  1  0  0  0  0
M  END

>  <name>
Atropine

>  <ROTATABLE_BONDCOUNT>
5

>  <HBDScore>
0.8333333333333334

>  <dipole>
3.32

>  <logD>
-0.41

>  <MPOScore>
5.138333333333333

>  <logDScore>
1.0

>  <MW>
289.375

>  <charge_dist(7.4)>
0.99

>  <CNS>
TRUE

>  <ArRings>
1

>  <HBD>
1

>  <BALABAN_INDEX>
1.33

>  <bpKa>
9.39

>  <TPSAScore>
1.0

>  <MWScore>
1.0

>  <bpKaScore>
0.3049999999999997

>  <logPScore>
1.0

>  <MPO_area>
73.21

>  <TPSA>
49.77

>  <logP>
1.57

$$$$

  Mrv1722703221715202D          

 28 31  0  0  0  0            999 V2000
    0.0000    0.0000    0.0000 S   0  0  0  0  0  0  0  0  0  0  0  0
   -0.3763    0.7462    0.0000 C   0  0  0  0  0  0  0  0  0  0  0  0
    0.8176   -0.0389    0.0000 C   0  0  0  0  0  0  0  0  0  0  0  0
   -1.2069    0.7981    0.0000 C   0  0  0  0  0  0  0  0  0  0  0  0
    0.0714    1.4405    0.0000 C   0  0  0  0  0  0  0  0  0  0  0  0
    1.1810   -0.7722    0.0000 C   0  0  0  0  0  0  0  0  0  0  0  0
    1.2653    0.6554    0.0000 C   0  0  0  0  0  0  0  0  0  0  0  0
   -1.6676    0.1168    0.0000 C   0  0  0  0  0  0  0  0  0  0  0  0
   -1.5833    1.5443    0.0000 C   0  0  0  0  0  0  0  0  0  0  0  0
   -0.3049    2.1867    0.0000 C   0  0  0  0  0  0  0  0  0  0  0  0
    1.9986   -0.8111    0.0000 C   0  0  0  0  0  0  0  0  0  0  0  0
    2.0829    0.6164    0.0000 C   0  0  0  0  0  0  0  0  0  0  0  0
   -1.3043   -0.6164    0.0000 O   0  0  0  0  0  0  0  0  0  0  0  0
   -2.4982    0.1687    0.0000 N   0  0  0  0  0  0  0  0  0  0  0  0
   -1.1355    2.2386    0.0000 C   0  0  0  0  0  0  0  0  0  0  0  0
    2.5112   -1.4470    0.0000 N   0  0  0  0  0  2  0  0  0  0  0  0
    2.4463   -0.1168    0.0000 C   0  0  0  0  0  0  0  0  0  0  0  0
   -2.9589   -0.5126    0.0000 C   0  0  0  0  0  0  0  0  0  0  0  0
    3.2768   -1.1485    0.0000 N   0  0  0  0  0  0  0  0  0  0  0  0
    3.2379   -0.3244    0.0000 C   0  0  0  0  0  0  0  0  0  0  0  0
    3.8738    0.2012    0.0000 C   0  0  0  0  0  0  0  0  0  0  0  0
    4.6395   -0.0909    0.0000 C   0  0  0  0  0  0  0  0  0  0  0  0
    5.2754    0.4347    0.0000 C   0  0  0  0  0  0  0  0  0  0  0  0
    5.1456    1.2588    0.0000 N   0  0  0  0  0  0  0  0  0  0  0  0
    6.0411    0.1428    0.0000 C   0  0  0  0  0  0  0  0  0  0  0  0
    5.7815    1.7844    0.0000 C   0  0  0  0  0  0  0  0  0  0  0  0
    6.6770    0.6684    0.0000 C   0  0  0  0  0  0  0  0  0  0  0  0
    6.5472    1.4924    0.0000 C   0  0  0  0  0  0  0  0  0  0  0  0
  1  2  1  0  0  0  0
  1  3  1  0  0  0  0
  2  4  2  0  0  0  0
  2  5  1  0  0  0  0
  3  6  2  0  0  0  0
  3  7  1  0  0  0  0
  4  8  1  0  0  0  0
  4  9  1  0  0  0  0
  5 10  2  0  0  0  0
  6 11  1  0  0  0  0
  7 12  2  0  0  0  0
  8 13  2  0  0  0  0
  8 14  1  0  0  0  0
  9 15  2  0  0  0  0
 11 16  1  0  0  0  0
 11 17  2  0  0  0  0
 14 18  1  0  0  0  0
 16 19  1  0  0  0  0
 17 20  1  0  0  0  0
 20 21  1  0  0  0  0
 21 22  2  0  0  0  0
 22 23  1  0  0  0  0
 23 24  2  0  0  0  0
 23 25  1  0  0  0  0
 24 26  1  0  0  0  0
 25 27  2  0  0  0  0
 26 28  2  0  0  0  0
 10 15  1  0  0  0  0
 12 17  1  0  0  0  0
 19 20  2  0  0  0  0
 27 28  1  0  0  0  0
M  RAD  1  16   2
M  END

>  <name>
Axitinib

>  <ROTATABLE_BONDCOUNT>
5

>  <HBDScore>
0.8333333333333334

>  <logD>
3.67

>  <MPOScore>
4.481404761904762

>  <logDScore>
0.16500000000000004

>  <MW>
385.47

>  <charge_dist(7.4)>
0.00

>  <CNS>
TRUE

>  <ArRings>
4

>  <HBD>
1

>  <BALABAN_INDEX>
1.20

>  <bpKa>
4.59

>  <TPSAScore>
1.0

>  <MWScore>
0.8180714285714283

>  <bpKaScore>
1.0

>  <logPScore>
0.665

>  <MPO_area>
55.56

>  <TPSA>
67.77

>  <logP>
3.67

$$$$

  Mrv1722703221715202D          

 22 25  0  0  0  0            999 V2000
    0.0000    0.0000    0.0000 N   0  0  0  0  0  0  0  0  0  0  0  0
   -0.5695   -0.6022    0.0000 C   0  0  0  0  0  0  0  0  0  0  0  0
   -0.2488    0.7986    0.0000 C   0  0  0  0  0  0  0  0  0  0  0  0
   -0.2160   -1.3419    0.0000 C   0  0  0  0  0  0  0  0  0  0  0  0
   -1.3877   -0.4124    0.0000 C   0  0  0  0  0  0  0  0  0  0  0  0
   -1.0670    0.9884    0.0000 C   0  0  0  0  0  0  0  0  0  0  0  0
   -0.5826   -2.0816    0.0000 C   0  0  0  0  0  0  0  0  0  0  0  0
    0.6088   -1.3354    0.0000 C   0  0  0  0  0  0  0  0  0  0  0  0
   -1.6365    0.3862    0.0000 C   0  0  0  0  0  0  0  0  0  0  0  0
   -2.0423   -0.9230    0.0000 C   0  0  0  0  0  0  0  0  0  0  0  0
   -1.4008   -2.2583    0.0000 C   0  0  0  0  0  0  0  0  0  0  0  0
   -0.0262   -2.6838    0.0000 C   0  0  0  0  0  0  0  0  0  0  0  0
    1.0146   -2.0488    0.0000 C   0  0  0  0  0  0  0  0  0  0  0  0
    1.0146   -0.6088    0.0000 C   0  0  0  0  0  0  0  0  0  0  0  0
   -2.0488   -1.7477    0.0000 C   0  0  0  0  0  0  0  0  0  0  0  0
   -1.6496   -3.0438    0.0000 C   0  0  0  0  0  0  0  0  0  0  0  0
   -0.2749   -3.4693    0.0000 C   0  0  0  0  0  0  0  0  0  0  0  0
    1.8394   -2.0423    0.0000 C   0  0  0  0  0  0  0  0  0  0  0  0
    1.8394   -0.6022    0.0000 C   0  0  0  0  0  0  0  0  0  0  0  0
   -1.0932   -3.6461    0.0000 C   0  0  0  0  0  0  0  0  0  0  0  0
    2.2452   -1.3157    0.0000 N   0  0  0  0  0  0  0  0  0  0  0  0
    3.0700   -1.3092    0.0000 C   0  0  0  0  0  0  0  0  0  0  0  0
  1  2  2  0  0  0  0
  1  3  1  0  0  0  0
  2  4  1  0  0  0  0
  2  5  1  0  0  0  0
  3  6  2  0  0  0  0
  4  7  1  0  0  0  0
  4  8  2  0  0  0  0
  5  9  2  0  0  0  0
  5 10  1  0  0  0  0
  7 11  2  0  0  0  0
  7 12  1  0  0  0  0
  8 13  1  0  0  0  0
  8 14  1  0  0  0  0
 10 15  1  0  0  0  0
 11 16  1  0  0  0  0
 12 17  2  0  0  0  0
 13 18  1  0  0  0  0
 14 19  1  0  0  0  0
 16 20  2  0  0  0  0
 18 21  1  0  0  0  0
 21 22  1  0  0  0  0
  6  9  1  0  0  0  0
 11 15  1  0  0  0  0
 17 20  1  0  0  0  0
 19 21  1  0  0  0  0
M  END

>  <name>
Azatadine

>  <ROTATABLE_BONDCOUNT>
0

>  <HBDScore>
1.0

>  <dipole>
7.77

>  <logD>
3.12

>  <MPOScore>
4.0649999999999995

>  <logDScore>
0.43999999999999995

>  <MW>
290.410

>  <charge_dist(7.4)>
0.77

>  <CNS>
TRUE

>  <ArRings>
2

>  <HBD>
0

>  <BALABAN_INDEX>
1.59

>  <bpKa>
7.91

>  <TPSAScore>
0.0

>  <MWScore>
1.0

>  <bpKaScore>
1.0

>  <logPScore>
0.625

>  <MPO_area>
48.33

>  <TPSA>
16.13

>  <logP>
3.75

$$$$

  Mrv1722703221715202D          

 14 14  0  0  0  0            999 V2000
    0.0000    0.0000    0.0000 Cl  0  0  0  0  0  0  0  0  0  0  0  0
    0.8200    0.0911    0.0000 C   0  0  0  0  0  0  0  0  0  0  0  0
    1.1519    0.8590    0.0000 C   0  0  0  0  0  0  0  0  0  0  0  0
    1.3015   -0.5727    0.0000 C   0  0  0  0  0  0  0  0  0  0  0  0
    1.9718    0.9501    0.0000 C   0  0  0  0  0  0  0  0  0  0  0  0
    2.1215   -0.4816    0.0000 C   0  0  0  0  0  0  0  0  0  0  0  0
    2.4534    0.2863    0.0000 C   0  0  0  0  0  0  0  0  0  0  0  0
    3.2734    0.3775    0.0000 C   0  0  2  0  0  0  0  0  0  0  0  0
    3.6052    1.1454    0.0000 C   0  0  0  0  0  0  0  0  0  0  0  0
    3.7549   -0.2863    0.0000 C   0  0  0  0  0  0  0  0  0  0  0  0
    4.4252    1.2364    0.0000 N   0  0  0  0  0  0  0  0  0  0  0  0
    4.5749   -0.1952    0.0000 C   0  0  0  0  0  0  0  0  0  0  0  0
    4.9068    0.5727    0.0000 O   0  0  0  0  0  0  0  0  0  0  0  0
    5.0564   -0.8590    0.0000 O   0  0  0  0  0  0  0  0  0  0  0  0
  1  2  1  0  0  0  0
  2  3  2  0  0  0  0
  2  4  1  0  0  0  0
  3  5  1  0  0  0  0
  4  6  2  0  0  0  0
  5  7  2  0  0  0  0
  7  8  1  0  0  0  0
  8  9  1  6  0  0  0
  8 10  1  0  0  0  0
  9 11  1  0  0  0  0
 10 12  1  0  0  0  0
 12 13  2  0  0  0  0
 12 14  1  0  0  0  0
  6  7  1  0  0  0  0
M  END

>  <name>
Baclofen

>  <ROTATABLE_BONDCOUNT>
4

>  <HBDScore>
0.5

>  <dipole>
2.81

>  <logD>
-0.78

>  <MPOScore>
4.605

>  <logDScore>
1.0

>  <MW>
213.66

>  <charge_dist(7.4)>
-0.00

>  <CNS>
TRUE

>  <ArRings>
1

>  <HBD>
2

>  <BALABAN_INDEX>
2.36

>  <bpKa>
9.79

>  <TPSAScore>
1.0

>  <MWScore>
1.0

>  <bpKaScore>
0.10500000000000043

>  <logPScore>
1.0

>  <MPO_area>
60.96

>  <TPSA>
63.32

>  <logP>
-0.78

$$$$

  Mrv1722703221715202D          

 18 19  0  0  0  0            999 V2000
    0.0000    0.0000    0.0000 N   0  0  0  0  0  0  0  0  0  0  0  0
   -0.7941    0.2313    0.0000 C   0  0  2  0  0  0  0  0  0  0  0  0
    0.5815    0.5753    0.0000 C   0  0  0  0  0  0  0  0  0  0  0  0
    0.1876   -0.7879    0.0000 C   0  0  0  0  0  0  0  0  0  0  0  0
   -0.9942    1.0317    0.0000 C   0  0  0  0  0  0  0  0  0  0  0  0
   -1.3881   -0.3314    0.0000 C   0  0  0  0  0  0  0  0  0  0  0  0
    0.3814    1.3756    0.0000 C   0  0  0  0  0  0  0  0  0  0  0  0
   -1.7883    1.2631    0.0000 C   0  0  0  0  0  0  0  0  0  0  0  0
    0.9629    1.9509    0.0000 C   0  0  0  0  0  0  0  0  0  0  0  0
   -0.4127    1.6069    0.0000 C   0  0  0  0  0  0  0  0  0  0  0  0
   -1.9884    2.0634    0.0000 C   0  0  0  0  0  0  0  0  0  0  0  0
   -2.3823    0.7003    0.0000 C   0  0  0  0  0  0  0  0  0  0  0  0
    0.7629    2.7512    0.0000 C   0  0  0  0  0  0  0  0  0  0  0  0
   -0.6128    2.4073    0.0000 C   0  0  0  0  0  0  0  0  0  0  0  0
   -2.7825    2.2948    0.0000 C   0  0  0  0  0  0  0  0  0  0  0  0
   -3.1764    0.9317    0.0000 C   0  0  0  0  0  0  0  0  0  0  0  0
   -0.0313    2.9826    0.0000 C   0  0  0  0  0  0  0  0  0  0  0  0
   -3.3765    1.7320    0.0000 C   0  0  0  0  0  0  0  0  0  0  0  0
  2  1  1  1  0  0  0
  1  3  1  0  0  0  0
  1  4  1  0  0  0  0
  2  5  1  0  0  0  0
  2  6  1  0  0  0  0
  3  7  1  0  0  0  0
  5  8  1  0  0  0  0
  7  9  2  0  0  0  0
  7 10  1  0  0  0  0
  8 11  2  0  0  0  0
  8 12  1  0  0  0  0
  9 13  1  0  0  0  0
 10 14  2  0  0  0  0
 11 15  1  0  0  0  0
 12 16  2  0  0  0  0
 13 17  2  0  0  0  0
 15 18  2  0  0  0  0
 14 17  1  0  0  0  0
 16 18  1  0  0  0  0
M  END

>  <name>
Benzphetamine

>  <ROTATABLE_BONDCOUNT>
5

>  <HBDScore>
1.0

>  <dipole>
0.68

>  <logD>
2.05

>  <MPOScore>
3.445

>  <logDScore>
0.9750000000000001

>  <MW>
239.362

>  <charge_dist(7.4)>
1.00

>  <CNS>
TRUE

>  <ArRings>
2

>  <HBD>
0

>  <BALABAN_INDEX>
1.59

>  <bpKa>
9.72

>  <TPSAScore>
0.0

>  <MWScore>
1.0

>  <bpKaScore>
0.13999999999999968

>  <logPScore>
0.33000000000000007

>  <MPO_area>
39.05

>  <TPSA>
3.24

>  <logP>
4.34

$$$$

  Mrv1722703221715202D          

 23 26  0  0  1  0            999 V2000
    0.0000    0.0000    0.0000 O   0  0  0  0  0  0  0  0  0  0  0  0
    0.7960    0.1812    0.0000 C   0  0  2  0  0  0  0  0  0  0  0  0
   -0.5630    0.6148    0.0000 C   0  0  0  0  0  0  0  0  0  0  0  0
    1.0354    0.9707    0.0000 C   0  0  0  0  0  0  0  0  0  0  0  0
    1.3460   -0.4206    0.0000 C   0  0  0  0  0  0  0  0  0  0  0  0
   -1.3719    0.4465    0.0000 C   0  0  0  0  0  0  0  0  0  0  0  0
   -0.3235    1.4043    0.0000 C   0  0  0  0  0  0  0  0  0  0  0  0
    1.8508    1.0613    0.0000 C   0  0  1  0  0  0  0  0  0  0  0  0
    2.1420   -0.2394    0.0000 C   0  0  2  0  0  0  0  0  0  0  0  0
   -1.9349    1.0613    0.0000 C   0  0  0  0  0  0  0  0  0  0  0  0
   -1.6243   -0.3300    0.0000 C   0  0  0  0  0  0  0  0  0  0  0  0
    0.4724    1.5855    0.0000 C   0  0  0  0  0  0  0  0  0  0  0  0
   -0.8866    2.0190    0.0000 C   0  0  0  0  0  0  0  0  0  0  0  0
    1.5143    0.3171    0.0000 N   0  0  0  0  0  0  0  0  0  0  0  0
    2.6597    0.9901    0.0000 C   0  0  0  0  0  0  0  0  0  0  0  0
    2.8409    0.1812    0.0000 C   0  0  0  0  0  0  0  0  0  0  0  0
   -2.7438    0.8930    0.0000 C   0  0  0  0  0  0  0  0  0  0  0  0
   -2.4332   -0.4983    0.0000 C   0  0  0  0  0  0  0  0  0  0  0  0
    0.7118    2.3750    0.0000 C   0  0  0  0  0  0  0  0  0  0  0  0
   -0.6471    2.8085    0.0000 C   0  0  0  0  0  0  0  0  0  0  0  0
    1.1195    0.1294    0.0000 C   0  0  0  0  0  0  0  0  0  0  0  0
   -2.9962    0.1165    0.0000 C   0  0  0  0  0  0  0  0  0  0  0  0
    0.1488    2.9897    0.0000 C   0  0  0  0  0  0  0  0  0  0  0  0
  2  1  1  6  0  0  0
  1  3  1  0  0  0  0
  2  4  1  0  0  0  0
  2  5  1  0  0  0  0
  3  6  1  0  0  0  0
  3  7  1  0  0  0  0
  4  8  1  0  0  0  0
  5  9  1  0  0  0  0
  6 10  2  0  0  0  0
  6 11  1  0  0  0  0
  7 12  2  0  0  0  0
  7 13  1  0  0  0  0
  8 14  1  1  0  0  0
  8 15  1  0  0  0  0
  9 16  1  0  0  0  0
 10 17  1  0  0  0  0
 11 18  2  0  0  0  0
 12 19  1  0  0  0  0
 13 20  2  0  0  0  0
 14 21  1  0  0  0  0
 17 22  2  0  0  0  0
 19 23  2  0  0  0  0
  9 14  1  1  0  0  0
 15 16  1  0  0  0  0
 18 22  1  0  0  0  0
 20 23  1  0  0  0  0
M  END

>  <name>
Benztropine

>  <ROTATABLE_BONDCOUNT>
4

>  <HBDScore>
1.0

>  <dipole>
1.19

>  <logD>
2.06

>  <MPOScore>
3.6050000000000004

>  <logDScore>
0.97

>  <MW>
307.437

>  <charge_dist(7.4)>
0.99

>  <CNS>
TRUE

>  <ArRings>
2

>  <HBD>
0

>  <BALABAN_INDEX>
1.36

>  <bpKa>
9.54

>  <TPSAScore>
0.0

>  <MWScore>
1.0

>  <bpKaScore>
0.23000000000000043

>  <logPScore>
0.4049999999999998

>  <MPO_area>
40.93

>  <TPSA>
12.47

>  <logP>
4.19

$$$$

  Mrv1722703221715202D          

 27 29  0  0  0  0            999 V2000
    0.0000    0.0000    0.0000 O   0  0  0  0  0  0  0  0  0  0  0  0
    0.6883   -0.4350    0.0000 C   0  0  0  0  0  0  0  0  0  0  0  0
   -0.7402   -0.3766    0.0000 C   0  0  0  0  0  0  0  0  0  0  0  0
    1.4155   -0.0454    0.0000 C   0  0  1  0  0  0  0  0  0  0  0  0
   -1.4415    0.0714    0.0000 C   0  0  0  0  0  0  0  0  0  0  0  0
    1.4480    0.7857    0.0000 N   0  0  0  0  0  0  0  0  0  0  0  0
    2.1038   -0.4805    0.0000 C   0  0  0  0  0  0  0  0  0  0  0  0
   -2.1817   -0.3052    0.0000 C   0  0  0  0  0  0  0  0  0  0  0  0
   -1.4090    0.9025    0.0000 C   0  0  0  0  0  0  0  0  0  0  0  0
    0.7987    1.3051    0.0000 C   0  0  0  0  0  0  0  0  0  0  0  0
    2.1298    1.2467    0.0000 C   0  0  0  0  0  0  0  0  0  0  0  0
    2.8310   -0.0909    0.0000 N   0  0  0  0  0  0  0  0  0  0  0  0
    1.0844    2.0843    0.0000 C   0  0  0  0  0  0  0  0  0  0  0  0
    1.9025    2.0519    0.0000 C   0  0  0  0  0  0  0  0  0  0  0  0
    3.5193   -0.5259    0.0000 C   0  0  0  0  0  0  0  0  0  0  0  0
    2.8635    0.7402    0.0000 C   0  0  0  0  0  0  0  0  0  0  0  0
    3.4739   -1.3441    0.0000 C   0  0  0  0  0  0  0  0  0  0  0  0
    4.2466   -0.1363    0.0000 C   0  0  0  0  0  0  0  0  0  0  0  0
    3.5907    1.1298    0.0000 C   0  0  0  0  0  0  0  0  0  0  0  0
    4.1621   -1.7791    0.0000 C   0  0  0  0  0  0  0  0  0  0  0  0
    4.9348   -0.5714    0.0000 C   0  0  0  0  0  0  0  0  0  0  0  0
    3.6232    1.9610    0.0000 C   0  0  0  0  0  0  0  0  0  0  0  0
    4.2790    0.6948    0.0000 C   0  0  0  0  0  0  0  0  0  0  0  0
    4.8894   -1.3895    0.0000 C   0  0  0  0  0  0  0  0  0  0  0  0
    4.3504    2.3505    0.0000 C   0  0  0  0  0  0  0  0  0  0  0  0
    5.0063    1.0844    0.0000 C   0  0  0  0  0  0  0  0  0  0  0  0
    5.0387    1.9155    0.0000 C   0  0  0  0  0  0  0  0  0  0  0  0
  1  2  1  0  0  0  0
  1  3  1  0  0  0  0
  2  4  1  0  0  0  0
  3  5  1  0  0  0  0
  4  6  1  1  0  0  0
  4  7  1  0  0  0  0
  5  8  1  0  0  0  0
  5  9  1  0  0  0  0
  6 10  1  0  0  0  0
  6 11  1  0  0  0  0
  7 12  1  0  0  0  0
 10 13  1  0  0  0  0
 11 14  1  0  0  0  0
 12 15  1  0  0  0  0
 12 16  1  0  0  0  0
 15 17  2  0  0  0  0
 15 18  1  0  0  0  0
 16 19  1  0  0  0  0
 17 20  1  0  0  0  0
 18 21  2  0  0  0  0
 19 22  2  0  0  0  0
 19 23  1  0  0  0  0
 20 24  2  0  0  0  0
 22 25  1  0  0  0  0
 23 26  2  0  0  0  0
 25 27  2  0  0  0  0
 13 14  1  0  0  0  0
 21 24  1  0  0  0  0
 26 27  1  0  0  0  0
M  END

>  <name>
Bepridil

>  <ROTATABLE_BONDCOUNT>
10

>  <HBDScore>
1.0

>  <dipole>
7.90

>  <logD>
3.73

>  <MPOScore>
2.508221428571429

>  <logDScore>
0.135

>  <MW>
366.549

>  <charge_dist(7.4)>
0.98

>  <CNS>
TRUE

>  <ArRings>
2

>  <HBD>
0

>  <BALABAN_INDEX>
1.55

>  <bpKa>
9.16

>  <TPSAScore>
0.0

>  <MWScore>
0.9532214285714288

>  <bpKaScore>
0.41999999999999993

>  <logPScore>
0.0

>  <MPO_area>
23.5

>  <TPSA>
15.71

>  <logP>
5.49

$$$$

  Mrv1722703221715202D          

 13 13  0  0  0  0            999 V2000
    0.0000    0.0000    0.0000 N   0  0  0  0  0  0  0  0  0  0  0  0
    0.5497   -0.6136    0.0000 C   0  0  0  0  0  0  0  0  0  0  0  0
   -0.8182   -0.1662    0.0000 C   0  0  0  0  0  0  0  0  0  0  0  0
    1.3550   -0.4347    0.0000 N   0  0  0  0  0  0  0  0  0  0  0  0
    0.2876   -1.3934    0.0000 N   0  0  0  0  0  0  0  0  0  0  0  0
    1.9047   -1.0482    0.0000 C   0  0  0  0  0  0  0  0  0  0  0  0
   -0.5305   -1.5596    0.0000 C   0  0  0  0  0  0  0  0  0  0  0  0
    2.7101   -0.8693    0.0000 C   0  0  0  0  0  0  0  0  0  0  0  0
    2.9593   -0.0767    0.0000 C   0  0  0  0  0  0  0  0  0  0  0  0
    3.2598   -1.4828    0.0000 C   0  0  0  0  0  0  0  0  0  0  0  0
    3.7647    0.1023    0.0000 C   0  0  0  0  0  0  0  0  0  0  0  0
    4.0651   -1.3039    0.0000 C   0  0  0  0  0  0  0  0  0  0  0  0
    4.3143   -0.5113    0.0000 C   0  0  0  0  0  0  0  0  0  0  0  0
  1  2  2  0  0  0  0
  1  3  1  0  0  0  0
  2  4  1  0  0  0  0
  2  5  1  0  0  0  0
  4  6  1  0  0  0  0
  5  7  1  0  0  0  0
  6  8  1  0  0  0  0
  8  9  2  0  0  0  0
  8 10  1  0  0  0  0
  9 11  1  0  0  0  0
 10 12  2  0  0  0  0
 11 13  2  0  0  0  0
 12 13  1  0  0  0  0
M  END

>  <name>
Bethanidine

>  <ROTATABLE_BONDCOUNT>
2

>  <HBDScore>
0.5

>  <dipole>
2.99

>  <logD>
-1.15

>  <MPOScore>
4.321

>  <logDScore>
1.0

>  <MW>
177.251

>  <charge_dist(7.4)>
1.00

>  <CNS>
TRUE

>  <ArRings>
1

>  <HBD>
2

>  <BALABAN_INDEX>
1.93

>  <bpKa>
12.41

>  <TPSAScore>
0.8210000000000002

>  <MWScore>
1.0

>  <bpKaScore>
0.0

>  <logPScore>
1.0

>  <MPO_area>
53.86

>  <TPSA>
36.42

>  <logP>
1.27

$$$$

  Mrv1722703221715202D          

 26 28  0  0  0  0            999 V2000
    0.0000    0.0000    0.0000 O   0  0  0  0  0  0  0  0  0  0  0  0
    0.0647    0.8284    0.0000 C   0  0  0  0  0  0  0  0  0  0  0  0
   -0.6149    1.3073    0.0000 O   0  0  0  0  0  0  0  0  0  0  0  0
    0.8090    1.1844    0.0000 C   0  0  0  0  0  0  0  0  0  0  0  0
    0.8737    2.0128    0.0000 C   0  0  0  0  0  0  0  0  0  0  0  0
    1.4757    0.7184    0.0000 C   0  0  0  0  0  0  0  0  0  0  0  0
    1.6180    2.3688    0.0000 C   0  0  0  0  0  0  0  0  0  0  0  0
    2.2199    1.0744    0.0000 C   0  0  0  0  0  0  0  0  0  0  0  0
    2.2847    1.9028    0.0000 C   0  0  0  0  0  0  0  0  0  0  0  0
    3.0289    2.2588    0.0000 C   0  0  0  0  0  0  0  0  0  0  0  0
    3.6956    1.7928    0.0000 C   0  0  0  0  0  0  0  0  0  0  0  0
    3.0937    3.0872    0.0000 C   0  0  0  0  0  0  0  0  0  0  0  0
    3.6179    0.9773    0.0000 C   0  0  0  0  0  0  0  0  0  0  0  0
    4.4399    2.1487    0.0000 C   0  0  0  0  0  0  0  0  0  0  0  0
    4.2845    0.5113    0.0000 C   0  0  0  0  0  0  0  0  0  0  0  0
    2.8607    0.6343    0.0000 C   0  0  0  0  0  0  0  0  0  0  0  0
    5.1065    1.6827    0.0000 C   0  0  0  0  0  0  0  0  0  0  0  0
    5.0288    0.8673    0.0000 C   0  0  0  0  0  0  0  0  0  0  0  0
    5.8508    2.0387    0.0000 C   0  0  0  0  0  0  0  0  0  0  0  0
    5.6955    0.4013    0.0000 C   0  0  0  0  0  0  0  0  0  0  0  0
    6.5174    1.5727    0.0000 C   0  0  0  0  0  0  0  0  0  0  0  0
    6.4268    2.6277    0.0000 C   0  0  0  0  0  0  0  0  0  0  0  0
    5.3719    2.7247    0.0000 C   0  0  0  0  0  0  0  0  0  0  0  0
    6.4397    0.7572    0.0000 C   0  0  0  0  0  0  0  0  0  0  0  0
    5.1065   -0.1747    0.0000 C   0  0  0  0  0  0  0  0  0  0  0  0
    6.1614   -0.2718    0.0000 C   0  0  0  0  0  0  0  0  0  0  0  0
  1  2  2  0  0  0  0
  2  3  1  0  0  0  0
  2  4  1  0  0  0  0
  4  5  2  0  0  0  0
  4  6  1  0  0  0  0
  5  7  1  0  0  0  0
  6  8  2  0  0  0  0
  7  9  2  0  0  0  0
  9 10  1  0  0  0  0
 10 11  1  0  0  0  0
 10 12  2  0  0  0  0
 11 13  2  0  0  0  0
 11 14  1  0  0  0  0
 13 15  1  0  0  0  0
 13 16  1  0  0  0  0
 14 17  2  0  0  0  0
 15 18  2  0  0  0  0
 17 19  1  0  0  0  0
 18 20  1  0  0  0  0
 19 21  1  0  0  0  0
 19 22  1  0  0  0  0
 19 23  1  0  0  0  0
 20 24  1  0  0  0  0
 20 25  1  0  0  0  0
 20 26  1  0  0  0  0
  8  9  1  0  0  0  0
 17 18  1  0  0  0  0
 21 24  1  0  0  0  0
M  END

>  <name>
Bexarotene

>  <ROTATABLE_BONDCOUNT>
3

>  <HBDScore>
0.8333333333333334

>  <dipole>
13.67

>  <logD>
3.82

>  <MPOScore>
3.788333333333333

>  <logDScore>
0.09000000000000008

>  <MW>
348.486

>  <charge_dist(7.4)>
-1.00

>  <CNS>
TRUE

>  <ArRings>
2

>  <HBD>
1

>  <BALABAN_INDEX>
1.69

>  <bpKa>
0.0

>  <TPSAScore>
0.8649999999999999

>  <MWScore>
1.0

>  <bpKaScore>
1.0

>  <logPScore>
0.0

>  <MPO_area>
44.35

>  <TPSA>
37.30

>  <logP>
6.94

$$$$

  Mrv1722703221715202D          

 23 26  0  0  0  0            999 V2000
    0.0000    0.0000    0.0000 O   0  0  0  0  0  0  0  0  0  0  0  0
    0.1353    0.8183    0.0000 C   0  0  0  0  0  0  0  0  0  0  0  0
    0.2706    1.6366    0.0000 C   0  0  0  0  0  0  0  0  0  0  0  0
   -0.6830    0.9665    0.0000 C   0  0  0  0  0  0  0  0  0  0  0  0
    0.9407    0.6830    0.0000 C   0  0  0  0  0  0  0  0  0  0  0  0
    1.0374    1.9266    0.0000 C   0  0  0  0  0  0  0  0  0  0  0  0
   -0.3673    2.1714    0.0000 C   0  0  0  0  0  0  0  0  0  0  0  0
   -1.2823    0.3995    0.0000 C   0  0  0  0  0  0  0  0  0  0  0  0
   -1.0503    1.7140    0.0000 C   0  0  0  0  0  0  0  0  0  0  0  0
    1.4627    1.3209    0.0000 C   0  0  0  0  0  0  0  0  0  0  0  0
    1.1727    2.7449    0.0000 C   0  0  0  0  0  0  0  0  0  0  0  0
   -0.2320    2.9897    0.0000 C   0  0  0  0  0  0  0  0  0  0  0  0
   -2.1070    0.2899    0.0000 C   0  0  0  0  0  0  0  0  0  0  0  0
   -1.1470    1.2178    0.0000 C   0  0  0  0  0  0  0  0  0  0  0  0
   -1.8750    1.6044    0.0000 C   0  0  0  0  0  0  0  0  0  0  0  0
    2.2681    1.1856    0.0000 N   0  0  0  0  0  0  0  0  0  0  0  0
    0.5348    3.2797    0.0000 C   0  0  0  0  0  0  0  0  0  0  0  0
   -2.4743    1.0374    0.0000 C   0  0  0  0  0  0  0  0  0  0  0  0
    2.5452    0.4124    0.0000 C   0  0  0  0  0  0  0  0  0  0  0  0
    2.7900    1.8235    0.0000 C   0  0  0  0  0  0  0  0  0  0  0  0
    3.3506    0.2771    0.0000 C   0  0  0  0  0  0  0  0  0  0  0  0
    3.5955    1.6882    0.0000 C   0  0  0  0  0  0  0  0  0  0  0  0
    3.8725    0.9150    0.0000 C   0  0  0  0  0  0  0  0  0  0  0  0
  1  2  1  0  0  0  0
  2  3  1  0  0  0  0
  2  4  1  0  0  0  0
  2  5  1  0  0  0  0
  3  6  2  0  0  0  0
  3  7  1  0  0  0  0
  4  8  1  0  0  0  0
  4  9  1  0  0  0  0
  5 10  1  0  0  0  0
  6 11  1  0  0  0  0
  7 12  2  0  0  0  0
  8 13  1  0  0  0  0
  8 14  1  0  0  0  0
  9 15  1  0  0  0  0
 10 16  1  0  0  0  0
 11 17  2  0  0  0  0
 13 18  2  0  0  0  0
 16 19  1  0  0  0  0
 16 20  1  0  0  0  0
 19 21  1  0  0  0  0
 20 22  1  0  0  0  0
 21 23  1  0  0  0  0
 12 17  1  0  0  0  0
 14 15  1  0  0  0  0
 15 18  1  0  0  0  0
 22 23  1  0  0  0  0
M  END

>  <name>
Biperiden

>  <ROTATABLE_BONDCOUNT>
5

>  <HBDScore>
0.8333333333333334

>  <dipole>
2.49

>  <logD>
1.64

>  <MPOScore>
4.086833333333333

>  <logDScore>
1.0

>  <MW>
311.469

>  <charge_dist(7.4)>
0.99

>  <CNS>
TRUE

>  <ArRings>
1

>  <HBD>
1

>  <BALABAN_INDEX>
1.40

>  <bpKa>
9.3

>  <TPSAScore>
0.17349999999999996

>  <MWScore>
1.0

>  <bpKaScore>
0.34999999999999964

>  <logPScore>
0.73

>  <MPO_area>
48.86

>  <TPSA>
23.47

>  <logP>
3.54

$$$$

  Mrv1722703221715202D          

 19 21  0  0  0  0            999 V2000
    0.0000    0.0000    0.0000 Br  0  0  0  0  0  0  0  0  0  0  0  0
    0.5363    0.6202    0.0000 C   0  0  0  0  0  0  0  0  0  0  0  0
    0.2714    1.4020    0.0000 C   0  0  0  0  0  0  0  0  0  0  0  0
    1.3374    0.4652    0.0000 C   0  0  0  0  0  0  0  0  0  0  0  0
    0.8076    2.0222    0.0000 C   0  0  0  0  0  0  0  0  0  0  0  0
    1.8736    1.0854    0.0000 C   0  0  0  0  0  0  0  0  0  0  0  0
    0.4264    2.7587    0.0000 C   0  0  0  0  0  0  0  0  0  0  0  0
    1.6087    1.8671    0.0000 C   0  0  0  0  0  0  0  0  0  0  0  0
    0.7559    3.5146    0.0000 N   0  0  0  0  0  0  0  0  0  0  0  0
   -0.4006    2.7458    0.0000 C   0  0  0  0  0  0  0  0  0  0  0  0
    2.2289    2.4034    0.0000 N   0  0  0  0  0  0  0  0  0  0  0  0
    1.5441    3.7214    0.0000 C   0  0  0  0  0  0  0  0  0  0  0  0
   -0.8012    2.0287    0.0000 N   0  0  0  0  0  0  0  0  0  0  0  0
   -0.8335    3.4500    0.0000 C   0  0  0  0  0  0  0  0  0  0  0  0
    2.2031    3.2304    0.0000 C   0  0  0  0  0  0  0  0  0  0  0  0
   -1.6281    2.0158    0.0000 C   0  0  0  0  0  0  0  0  0  0  0  0
   -1.6604    3.4371    0.0000 C   0  0  0  0  0  0  0  0  0  0  0  0
    2.9267    3.6116    0.0000 O   0  0  0  0  0  0  0  0  0  0  0  0
   -2.0610    2.7200    0.0000 C   0  0  0  0  0  0  0  0  0  0  0  0
  1  2  1  0  0  0  0
  2  3  2  0  0  0  0
  2  4  1  0  0  0  0
  3  5  1  0  0  0  0
  4  6  2  0  0  0  0
  5  7  1  0  0  0  0
  5  8  2  0  0  0  0
  7  9  2  0  0  0  0
  7 10  1  0  0  0  0
  8 11  1  0  0  0  0
  9 12  1  0  0  0  0
 10 13  2  0  0  0  0
 10 14  1  0  0  0  0
 11 15  1  0  0  0  0
 13 16  1  0  0  0  0
 14 17  2  0  0  0  0
 15 18  2  0  0  0  0
 16 19  2  0  0  0  0
  6  8  1  0  0  0  0
 12 15  1  0  0  0  0
 17 19  1  0  0  0  0
M  END

>  <name>
Bromazepam

>  <ROTATABLE_BONDCOUNT>
1

>  <HBDScore>
0.8333333333333334

>  <dipole>
4.25

>  <logD>
2.54

>  <MPOScore>
5.5633333333333335

>  <logDScore>
0.73

>  <MW>
316.158

>  <charge_dist(7.4)>
0.00

>  <CNS>
TRUE

>  <ArRings>
2

>  <HBD>
1

>  <BALABAN_INDEX>
1.66

>  <bpKa>
2.65

>  <TPSAScore>
1.0

>  <MWScore>
1.0

>  <bpKaScore>
1.0

>  <logPScore>
1.0

>  <MPO_area>
86.19

>  <TPSA>
54.35

>  <logP>
2.54

$$$$

  Mrv1722703221715202D          

 43 49  0  0  0  0            999 V2000
    0.0000    0.0000    0.0000 Br  0  0  0  0  0  0  0  0  0  0  0  0
    0.7431   -0.3390    0.0000 C   0  0  0  0  0  0  0  0  0  0  0  0
    0.8995   -1.1473    0.0000 N   0  0  0  0  0  0  0  0  0  0  0  0
    1.4601    0.0717    0.0000 C   0  0  0  0  0  0  0  0  0  0  0  0
    1.7143   -1.2385    0.0000 C   0  0  0  0  0  0  0  0  0  0  0  0
    2.0598   -0.4823    0.0000 C   0  0  0  0  0  0  0  0  0  0  0  0
    1.7926    0.8344    0.0000 C   0  0  0  0  0  0  0  0  0  0  0  0
    2.1837   -1.9099    0.0000 C   0  0  0  0  0  0  0  0  0  0  0  0
    2.8746   -0.3976    0.0000 C   0  0  0  0  0  0  0  0  0  0  0  0
    2.6009    1.0038    0.0000 C   0  0  2  0  0  0  0  0  0  0  0  0
    2.9984   -1.8252    0.0000 C   0  0  0  0  0  0  0  0  0  0  0  0
    3.1353    0.3911    0.0000 C   0  0  0  0  0  0  0  0  0  0  0  0
    3.3439   -1.0690    0.0000 C   0  0  0  0  0  0  0  0  0  0  0  0
    2.8616    1.7926    0.0000 N   0  0  0  0  0  0  0  0  0  0  0  0
    3.9436    0.5606    0.0000 C   0  0  0  0  0  0  0  0  0  0  0  0
    3.6698    1.9620    0.0000 C   0  0  0  0  0  0  0  0  0  0  0  0
    2.3075    2.4183    0.0000 C   0  0  0  0  0  0  0  0  0  0  0  0
    4.2044    1.3493    0.0000 C   0  0  2  0  0  0  0  0  0  0  0  0
    5.0127    1.5188    0.0000 C   0  0  0  0  0  0  0  0  0  0  0  0
    5.1169    2.0598    0.0000 O   0  0  0  0  0  0  0  0  0  0  0  0
    5.5537    0.9060    0.0000 N   0  0  0  0  0  0  0  0  0  0  0  0
    6.3619    1.0755    0.0000 C   0  0  2  0  0  0  0  0  0  0  0  0
    7.1181    1.4080    0.0000 O   0  0  0  0  0  0  0  0  0  0  0  0
    6.4336    0.2607    0.0000 C   0  0  0  0  0  0  0  0  0  0  0  0
    6.1077    1.8708    0.0000 C   0  0  0  0  0  0  0  0  0  0  0  0
    7.6591    0.7952    0.0000 C   0  0  1  0  0  0  0  0  0  0  0  0
    5.8078   -0.2803    0.0000 O   0  0  0  0  0  0  0  0  0  0  0  0
    7.2354    0.0847    0.0000 N   0  0  0  0  0  0  0  0  0  0  0  0
    5.5928    2.0598    0.0000 C   0  0  0  0  0  0  0  0  0  0  0  0
    6.6618    2.4835    0.0000 C   0  0  0  0  0  0  0  0  0  0  0  0
    7.9980    1.5514    0.0000 O   0  0  0  0  0  0  0  0  0  0  0  0
    8.4804    0.7887    0.0000 C   0  0  1  0  0  0  0  0  0  0  0  0
    7.6330   -0.6323    0.0000 C   0  0  2  0  0  0  0  0  0  0  0  0
    8.8781    0.0717    0.0000 N   0  0  0  0  0  0  0  0  0  0  0  0
    9.0344    1.4014    0.0000 C   0  0  0  0  0  0  0  0  0  0  0  0
    8.4543   -0.6388    0.0000 C   0  0  0  0  0  0  0  0  0  0  0  0
    7.2028   -1.3363    0.0000 C   0  0  0  0  0  0  0  0  0  0  0  0
    9.6863    0.2412    0.0000 C   0  0  0  0  0  0  0  0  0  0  0  0
    9.7776    1.0625    0.0000 C   0  0  0  0  0  0  0  0  0  0  0  0
    8.8519   -1.3558    0.0000 O   0  0  0  0  0  0  0  0  0  0  0  0
    7.6004   -2.0533    0.0000 C   0  0  0  0  0  0  0  0  0  0  0  0
    7.1702   -2.7573    0.0000 C   0  0  0  0  0  0  0  0  0  0  0  0
    8.4218   -2.0598    0.0000 C   0  0  0  0  0  0  0  0  0  0  0  0
  1  2  1  0  0  0  0
  2  3  1  0  0  0  0
  2  4  2  0  0  0  0
  3  5  1  0  0  0  0
  4  6  1  0  0  0  0
  4  7  1  0  0  0  0
  5  8  2  0  0  0  0
  6  9  2  0  0  0  0
  7 10  1  0  0  0  0
  8 11  1  0  0  0  0
  9 12  1  0  0  0  0
  9 13  1  0  0  0  0
 10 14  1  1  0  0  0
 12 15  2  0  0  0  0
 14 16  1  0  0  0  0
 14 17  1  0  0  0  0
 15 18  1  0  0  0  0
 18 19  1  6  0  0  0
 19 20  2  0  0  0  0
 19 21  1  0  0  0  0
 22 21  1  6  0  0  0
 22 23  1  0  0  0  0
 22 24  1  0  0  0  0
 22 25  1  0  0  0  0
 23 26  1  0  0  0  0
 24 27  2  0  0  0  0
 24 28  1  0  0  0  0
 25 29  1  0  0  0  0
 25 30  1  0  0  0  0
 26 31  1  6  0  0  0
 26 32  1  0  0  0  0
 28 33  1  0  0  0  0
 32 34  1  6  0  0  0
 32 35  1  0  0  0  0
 33 36  1  0  0  0  0
 33 37  1  6  0  0  0
 34 38  1  0  0  0  0
 35 39  1  0  0  0  0
 36 40  2  0  0  0  0
 37 41  1  0  0  0  0
 41 42  1  0  0  0  0
 41 43  1  0  0  0  0
  5  6  1  0  0  0  0
 10 12  1  0  0  0  0
 11 13  2  0  0  0  0
 16 18  1  0  0  0  0
 26 28  1  0  0  0  0
 34 36  1  0  0  0  0
 38 39  1  0  0  0  0
M  END

>  <name>
Bromocriptine

>  <ROTATABLE_BONDCOUNT>
5

>  <HBDScore>
0.16666666666666674

>  <dipole>
8.36

>  <logD>
3.80

>  <MPOScore>
1.8813333333333335

>  <logDScore>
0.10000000000000009

>  <MW>
654.606

>  <charge_dist(7.4)>
0.17

>  <CNS>
TRUE

>  <ArRings>
2

>  <HBD>
3

>  <BALABAN_INDEX>
1.13

>  <bpKa>
6.71

>  <TPSAScore>
0.05966666666666687

>  <MWScore>
0.0

>  <bpKaScore>
1.0

>  <logPScore>
0.5549999999999999

>  <MPO_area>
11.17

>  <TPSA>
118.21

>  <logP>
3.89

$$$$

  Mrv1722703221715202D          

 20 21  0  0  0  0            999 V2000
    0.0000    0.0000    0.0000 Br  0  0  0  0  0  0  0  0  0  0  0  0
   -0.8046    0.1886    0.0000 C   0  0  0  0  0  0  0  0  0  0  0  0
   -1.3640   -0.4086    0.0000 C   0  0  0  0  0  0  0  0  0  0  0  0
   -1.0560    0.9743    0.0000 C   0  0  0  0  0  0  0  0  0  0  0  0
   -2.1686   -0.2200    0.0000 C   0  0  0  0  0  0  0  0  0  0  0  0
   -1.8606    1.1629    0.0000 C   0  0  0  0  0  0  0  0  0  0  0  0
   -2.4201    0.5657    0.0000 C   0  0  0  0  0  0  0  0  0  0  0  0
   -3.2247    0.7543    0.0000 C   0  0  1  0  0  0  0  0  0  0  0  0
   -3.7841    0.1572    0.0000 O   0  0  0  0  0  0  0  0  0  0  0  0
   -3.4761    1.5401    0.0000 C   0  0  0  0  0  0  0  0  0  0  0  0
   -4.5887    0.3457    0.0000 C   0  0  0  0  0  0  0  0  0  0  0  0
   -2.9293    2.1498    0.0000 C   0  0  0  0  0  0  0  0  0  0  0  0
   -4.2807    1.7286    0.0000 C   0  0  0  0  0  0  0  0  0  0  0  0
   -5.1482   -0.2515    0.0000 C   0  0  0  0  0  0  0  0  0  0  0  0
   -3.1807    2.9355    0.0000 C   0  0  0  0  0  0  0  0  0  0  0  0
   -4.5321    2.5144    0.0000 C   0  0  0  0  0  0  0  0  0  0  0  0
   -5.9527   -0.0629    0.0000 N   0  0  0  0  0  0  0  0  0  0  0  0
   -3.9852    3.1241    0.0000 C   0  0  0  0  0  0  0  0  0  0  0  0
   -6.5122   -0.6600    0.0000 C   0  0  0  0  0  0  0  0  0  0  0  0
   -6.2042    0.7229    0.0000 C   0  0  0  0  0  0  0  0  0  0  0  0
  1  2  1  0  0  0  0
  2  3  2  0  0  0  0
  2  4  1  0  0  0  0
  3  5  1  0  0  0  0
  4  6  2  0  0  0  0
  5  7  2  0  0  0  0
  7  8  1  0  0  0  0
  8  9  1  1  0  0  0
  8 10  1  0  0  0  0
  9 11  1  0  0  0  0
 10 12  2  0  0  0  0
 10 13  1  0  0  0  0
 11 14  1  0  0  0  0
 12 15  1  0  0  0  0
 13 16  2  0  0  0  0
 14 17  1  0  0  0  0
 15 18  2  0  0  0  0
 17 19  1  0  0  0  0
 17 20  1  0  0  0  0
  6  7  1  0  0  0  0
 16 18  1  0  0  0  0
M  END

>  <name>
Bromodiphenhydramine

>  <ROTATABLE_BONDCOUNT>
6

>  <HBDScore>
1.0

>  <dipole>
1.76

>  <logD>
2.94

>  <MPOScore>
3.3850000000000007

>  <logDScore>
0.53

>  <MW>
334.257

>  <charge_dist(7.4)>
0.97

>  <CNS>
TRUE

>  <ArRings>
2

>  <HBD>
0

>  <BALABAN_INDEX>
1.88

>  <bpKa>
8.87

>  <TPSAScore>
0.0

>  <MWScore>
1.0

>  <bpKaScore>
0.5650000000000004

>  <logPScore>
0.29000000000000004

>  <MPO_area>
33.64

>  <TPSA>
12.47

>  <logP>
4.42

$$$$

  Mrv1722703221715202D          

 19 20  0  0  0  0            999 V2000
    0.0000    0.0000    0.0000 Br  0  0  0  0  0  0  0  0  0  0  0  0
    0.8184    0.1039    0.0000 C   0  0  0  0  0  0  0  0  0  0  0  0
    1.1432    0.8704    0.0000 C   0  0  0  0  0  0  0  0  0  0  0  0
    1.3056   -0.5586    0.0000 C   0  0  0  0  0  0  0  0  0  0  0  0
    1.9616    0.9743    0.0000 C   0  0  0  0  0  0  0  0  0  0  0  0
    2.1240   -0.4547    0.0000 C   0  0  0  0  0  0  0  0  0  0  0  0
    2.4488    0.3118    0.0000 C   0  0  0  0  0  0  0  0  0  0  0  0
    3.2672    0.4157    0.0000 C   0  0  1  0  0  0  0  0  0  0  0  0
    3.5920    1.1822    0.0000 C   0  0  0  0  0  0  0  0  0  0  0  0
    3.7544   -0.2468    0.0000 C   0  0  0  0  0  0  0  0  0  0  0  0
    4.4104    1.2861    0.0000 N   0  0  0  0  0  0  0  0  0  0  0  0
    3.0918    1.8577    0.0000 C   0  0  0  0  0  0  0  0  0  0  0  0
    4.5728   -0.1429    0.0000 C   0  0  0  0  0  0  0  0  0  0  0  0
    4.7352    2.0526    0.0000 C   0  0  0  0  0  0  0  0  0  0  0  0
    3.4166    2.6242    0.0000 C   0  0  0  0  0  0  0  0  0  0  0  0
    5.0600   -0.8055    0.0000 N   0  0  0  0  0  0  0  0  0  0  0  0
    4.2350    2.7281    0.0000 C   0  0  0  0  0  0  0  0  0  0  0  0
    5.8784   -0.7015    0.0000 C   0  0  0  0  0  0  0  0  0  0  0  0
    4.7222   -1.5589    0.0000 C   0  0  0  0  0  0  0  0  0  0  0  0
  1  2  1  0  0  0  0
  2  3  2  0  0  0  0
  2  4  1  0  0  0  0
  3  5  1  0  0  0  0
  4  6  2  0  0  0  0
  5  7  2  0  0  0  0
  7  8  1  0  0  0  0
  8  9  1  0  0  0  0
  8 10  1  1  0  0  0
  9 11  2  0  0  0  0
  9 12  1  0  0  0  0
 10 13  1  0  0  0  0
 11 14  1  0  0  0  0
 12 15  2  0  0  0  0
 13 16  1  0  0  0  0
 14 17  2  0  0  0  0
 16 18  1  0  0  0  0
 16 19  1  0  0  0  0
  6  7  1  0  0  0  0
 15 17  1  0  0  0  0
M  END

>  <name>
Brompheniramine

>  <ROTATABLE_BONDCOUNT>
5

>  <HBDScore>
1.0

>  <dipole>
2.53

>  <logD>
1.68

>  <MPOScore>
3.885

>  <logDScore>
1.0

>  <MW>
319.246

>  <charge_dist(7.4)>
0.99

>  <CNS>
TRUE

>  <ArRings>
2

>  <HBD>
0

>  <BALABAN_INDEX>
1.72

>  <bpKa>
9.48

>  <TPSAScore>
0.0

>  <MWScore>
1.0

>  <bpKaScore>
0.2599999999999998

>  <logPScore>
0.625

>  <MPO_area>
46.46

>  <TPSA>
16.13

>  <logP>
3.75

$$$$

  Mrv1722703221715202D          

 31 34  0  0  0  0            999 V2000
    0.0000    0.0000    0.0000 Cl  0  0  0  0  0  0  0  0  0  0  0  0
   -0.7022    0.4445    0.0000 C   0  0  0  0  0  0  0  0  0  0  0  0
   -1.4301    0.0709    0.0000 C   0  0  0  0  0  0  0  0  0  0  0  0
   -0.6764    1.2691    0.0000 C   0  0  0  0  0  0  0  0  0  0  0  0
   -2.1323    0.5153    0.0000 C   0  0  0  0  0  0  0  0  0  0  0  0
   -1.3786    1.7136    0.0000 C   0  0  0  0  0  0  0  0  0  0  0  0
   -2.1065    1.3399    0.0000 C   0  0  0  0  0  0  0  0  0  0  0  0
   -2.8087    1.7844    0.0000 C   0  0  1  0  0  0  0  0  0  0  0  0
   -3.5367    1.4108    0.0000 N   0  0  0  0  0  0  0  0  0  0  0  0
   -2.7829    2.6090    0.0000 C   0  0  0  0  0  0  0  0  0  0  0  0
   -4.2388    1.8553    0.0000 C   0  0  0  0  0  0  0  0  0  0  0  0
   -3.5753    0.5991    0.0000 C   0  0  0  0  0  0  0  0  0  0  0  0
   -2.0679    2.9955    0.0000 C   0  0  0  0  0  0  0  0  0  0  0  0
   -3.4851    3.0535    0.0000 C   0  0  0  0  0  0  0  0  0  0  0  0
   -4.9668    1.4816    0.0000 C   0  0  0  0  0  0  0  0  0  0  0  0
   -4.3032    0.2255    0.0000 C   0  0  0  0  0  0  0  0  0  0  0  0
   -2.0421    3.8201    0.0000 C   0  0  0  0  0  0  0  0  0  0  0  0
   -3.4594    3.8781    0.0000 C   0  0  0  0  0  0  0  0  0  0  0  0
   -5.0054    0.6699    0.0000 N   0  0  0  0  0  0  0  0  0  0  0  0
   -2.7443    4.2646    0.0000 C   0  0  0  0  0  0  0  0  0  0  0  0
   -5.7333    0.2963    0.0000 C   0  0  0  0  0  0  0  0  0  0  0  0
   -6.4355    0.7408    0.0000 C   0  0  0  0  0  0  0  0  0  0  0  0
   -6.4098    1.5654    0.0000 C   0  0  0  0  0  0  0  0  0  0  0  0
   -7.1635    0.3672    0.0000 C   0  0  0  0  0  0  0  0  0  0  0  0
   -7.1120    2.0099    0.0000 C   0  0  0  0  0  0  0  0  0  0  0  0
   -7.8657    0.8117    0.0000 C   0  0  0  0  0  0  0  0  0  0  0  0
   -7.8399    1.6363    0.0000 C   0  0  0  0  0  0  0  0  0  0  0  0
   -8.5420    2.0808    0.0000 C   0  0  0  0  0  0  0  0  0  0  0  0
   -8.1104    2.7829    0.0000 C   0  0  0  0  0  0  0  0  0  0  0  0
   -8.9866    1.3915    0.0000 C   0  0  0  0  0  0  0  0  0  0  0  0
   -9.2442    2.5253    0.0000 C   0  0  0  0  0  0  0  0  0  0  0  0
  1  2  1  0  0  0  0
  2  3  2  0  0  0  0
  2  4  1  0  0  0  0
  3  5  1  0  0  0  0
  4  6  2  0  0  0  0
  5  7  2  0  0  0  0
  7  8  1  0  0  0  0
  8  9  1  1  0  0  0
  8 10  1  0  0  0  0
  9 11  1  0  0  0  0
  9 12  1  0  0  0  0
 10 13  2  0  0  0  0
 10 14  1  0  0  0  0
 11 15  1  0  0  0  0
 12 16  1  0  0  0  0
 13 17  1  0  0  0  0
 14 18  2  0  0  0  0
 15 19  1  0  0  0  0
 17 20  2  0  0  0  0
 19 21  1  0  0  0  0
 21 22  1  0  0  0  0
 22 23  2  0  0  0  0
 22 24  1  0  0  0  0
 23 25  1  0  0  0  0
 24 26  2  0  0  0  0
 25 27  2  0  0  0  0
 27 28  1  0  0  0  0
 28 29  1  0  0  0  0
 28 30  1  0  0  0  0
 28 31  1  0  0  0  0
  6  7  1  0  0  0  0
 16 19  1  0  0  0  0
 18 20  1  0  0  0  0
 26 27  1  0  0  0  0
M  END

>  <name>
Buclizine

>  <ROTATABLE_BONDCOUNT>
6

>  <HBDScore>
1.0

>  <dipole>
1.98

>  <logD>
7.01

>  <MPOScore>
2.478285714285714

>  <logDScore>
0.0

>  <MW>
433.04

>  <charge_dist(7.4)>
0.54

>  <CNS>
TRUE

>  <ArRings>
3

>  <HBD>
0

>  <BALABAN_INDEX>
1.12

>  <bpKa>
7.6

>  <TPSAScore>
0.0

>  <MWScore>
0.4782857142857142

>  <bpKaScore>
1.0

>  <logPScore>
0.0

>  <MPO_area>
24.64

>  <TPSA>
6.48

>  <logP>
7.42

$$$$

  Mrv1722703221715202D          

 22 24  0  0  0  0            999 V2000
    0.0000    0.0000    0.0000 N   0  0  0  0  0  0  0  0  0  0  0  0
   -0.8381    0.0066    0.0000 C   0  0  0  0  0  0  0  0  0  0  0  0
    0.4059    0.7268    0.0000 C   0  0  0  0  0  0  0  0  0  0  0  0
    0.4059   -0.7136    0.0000 C   0  0  0  0  0  0  0  0  0  0  0  0
   -0.8446    0.8446    0.0000 C   0  0  0  0  0  0  0  0  0  0  0  0
   -0.8446   -0.8184    0.0000 C   0  0  0  0  0  0  0  0  0  0  0  0
   -1.6761    0.0131    0.0000 C   0  0  0  0  0  0  0  0  0  0  0  0
    1.2309    0.7333    0.0000 C   0  0  0  0  0  0  0  0  0  0  0  0
    1.2309   -0.7071    0.0000 C   0  0  0  0  0  0  0  0  0  0  0  0
    1.6368    0.0197    0.0000 C   0  0  0  0  0  0  0  0  0  0  0  0
    2.2654    0.5631    0.0000 C   0  0  0  0  0  0  0  0  0  0  0  0
    2.2654   -0.5107    0.0000 C   0  0  0  0  0  0  0  0  0  0  0  0
    3.0379    0.2881    0.0000 C   0  0  0  0  0  0  0  0  0  0  0  0
    2.1148    1.3880    0.0000 C   0  0  0  0  0  0  0  0  0  0  0  0
    2.1148   -1.3225    0.0000 C   0  0  0  0  0  0  0  0  0  0  0  0
    3.0379   -0.2226    0.0000 C   0  0  0  0  0  0  0  0  0  0  0  0
    3.6665    0.8315    0.0000 C   0  0  0  0  0  0  0  0  0  0  0  0
    2.7433    1.9314    0.0000 C   0  0  0  0  0  0  0  0  0  0  0  0
    2.7433   -1.8529    0.0000 C   0  0  0  0  0  0  0  0  0  0  0  0
    3.6665   -0.7529    0.0000 C   0  0  0  0  0  0  0  0  0  0  0  0
    3.5159    1.6565    0.0000 C   0  0  0  0  0  0  0  0  0  0  0  0
    3.5159   -1.5648    0.0000 C   0  0  0  0  0  0  0  0  0  0  0  0
  1  2  1  0  0  0  0
  1  3  1  0  0  0  0
  1  4  1  0  0  0  0
  2  5  1  0  0  0  0
  2  6  1  0  0  0  0
  2  7  1  0  0  0  0
  3  8  1  0  0  0  0
  4  9  1  0  0  0  0
  8 10  1  0  0  0  0
 10 11  1  0  0  0  0
 10 12  1  0  0  0  0
 11 13  2  0  0  0  0
 11 14  1  0  0  0  0
 12 15  2  0  0  0  0
 12 16  1  0  0  0  0
 13 17  1  0  0  0  0
 14 18  2  0  0  0  0
 15 19  1  0  0  0  0
 16 20  2  0  0  0  0
 17 21  2  0  0  0  0
 19 22  2  0  0  0  0
  9 10  1  0  0  0  0
 18 21  1  0  0  0  0
 20 22  1  0  0  0  0
M  END

>  <name>
Budipine

>  <ROTATABLE_BONDCOUNT>
3

>  <HBDScore>
1.0

>  <dipole>
0.33

>  <logD>
2.41

>  <MPOScore>
2.8249999999999997

>  <logDScore>
0.7949999999999999

>  <MW>
293.454

>  <charge_dist(7.4)>
1.00

>  <CNS>
TRUE

>  <ArRings>
2

>  <HBD>
0

>  <BALABAN_INDEX>
1.75

>  <bpKa>
9.99

>  <TPSAScore>
0.0

>  <MWScore>
1.0

>  <bpKaScore>
0.004999999999999893

>  <logPScore>
0.02499999999999991

>  <MPO_area>
30.25

>  <TPSA>
3.24

>  <logP>
4.95

$$$$

  Mrv1722703221715202D          

 25 26  0  0  0  0            999 V2000
    0.0000    0.0000    0.0000 S   0  0  0  0  0  0  0  0  0  0  0  0
    0.4295    0.0577    0.0000 O   0  0  0  0  0  0  0  0  0  0  0  0
   -0.7821   -0.2821    0.0000 O   0  0  0  0  0  0  0  0  0  0  0  0
    0.2821   -0.7693    0.0000 N   0  0  0  0  0  0  0  0  0  0  0  0
   -0.2949    0.7821    0.0000 C   0  0  0  0  0  0  0  0  0  0  0  0
    0.2244    1.4233    0.0000 C   0  0  0  0  0  0  0  0  0  0  0  0
   -1.1155    0.9232    0.0000 C   0  0  0  0  0  0  0  0  0  0  0  0
    1.0322    1.2950    0.0000 O   0  0  0  0  0  0  0  0  0  0  0  0
   -0.0705    2.2054    0.0000 C   0  0  0  0  0  0  0  0  0  0  0  0
   -1.4104    1.7053    0.0000 C   0  0  0  0  0  0  0  0  0  0  0  0
    1.3143    0.5257    0.0000 C   0  0  0  0  0  0  0  0  0  0  0  0
    0.4488    2.8465    0.0000 N   0  0  0  0  0  0  0  0  0  0  0  0
   -0.8912    2.3465    0.0000 C   0  0  0  0  0  0  0  0  0  0  0  0
   -2.2310    1.8464    0.0000 C   0  0  0  0  0  0  0  0  0  0  0  0
    0.7821   -0.1026    0.0000 C   0  0  0  0  0  0  0  0  0  0  0  0
    2.1221    0.3975    0.0000 C   0  0  0  0  0  0  0  0  0  0  0  0
    1.2566    2.7183    0.0000 C   0  0  0  0  0  0  0  0  0  0  0  0
   -2.7631    1.2181    0.0000 O   0  0  0  0  0  0  0  0  0  0  0  0
   -2.5259    2.6285    0.0000 O   0  0  0  0  0  0  0  0  0  0  0  0
    1.0642   -0.8719    0.0000 C   0  0  0  0  0  0  0  0  0  0  0  0
    2.4042   -0.3718    0.0000 C   0  0  0  0  0  0  0  0  0  0  0  0
    1.7759    3.3594    0.0000 C   0  0  0  0  0  0  0  0  0  0  0  0
    1.8720   -1.0001    0.0000 C   0  0  0  0  0  0  0  0  0  0  0  0
    2.5837    3.2312    0.0000 C   0  0  0  0  0  0  0  0  0  0  0  0
    3.1029    3.8723    0.0000 C   0  0  0  0  0  0  0  0  0  0  0  0
  1  2  2  0  0  0  0
  1  3  2  0  0  0  0
  1  4  1  0  0  0  0
  1  5  1  0  0  0  0
  5  6  2  0  0  0  0
  5  7  1  0  0  0  0
  6  8  1  0  0  0  0
  6  9  1  0  0  0  0
  7 10  2  0  0  0  0
  8 11  1  0  0  0  0
  9 12  1  0  0  0  0
  9 13  2  0  0  0  0
 10 14  1  0  0  0  0
 11 15  2  0  0  0  0
 11 16  1  0  0  0  0
 12 17  1  0  0  0  0
 14 18  2  0  0  0  0
 14 19  1  0  0  0  0
 15 20  1  0  0  0  0
 16 21  2  0  0  0  0
 17 22  1  0  0  0  0
 20 23  2  0  0  0  0
 22 24  1  0  0  0  0
 24 25  1  0  0  0  0
 10 13  1  0  0  0  0
 21 23  1  0  0  0  0
M  END

>  <name>
Bumetanide

>  <ROTATABLE_BONDCOUNT>
8

>  <HBDScore>
0.16666666666666674

>  <dipole>
10.66

>  <logD>
-0.13

>  <MPOScore>
4.177761904761905

>  <logDScore>
1.0

>  <MW>
364.42

>  <charge_dist(7.4)>
-1.00

>  <CNS>
TRUE

>  <ArRings>
2

>  <HBD>
3

>  <BALABAN_INDEX>
1.98

>  <bpKa>
2.7

>  <TPSAScore>
0.04266666666666674

>  <MWScore>
0.9684285714285713

>  <bpKaScore>
1.0

>  <logPScore>
1.0

>  <MPO_area>
52.99

>  <TPSA>
118.72

>  <logP>
2.42

$$$$

  Mrv1722703221715202D          

 34 40  0  0  0  0            999 V2000
    0.0000    0.0000    0.0000 O   0  0  0  0  0  0  0  0  0  0  0  0
    0.7869   -0.2194    0.0000 C   0  0  0  0  0  0  0  0  0  0  0  0
   -0.4767   -0.6809    0.0000 C   0  0  1  0  0  0  0  0  0  0  0  0
    1.4829    0.2270    0.0000 C   0  0  0  0  0  0  0  0  0  0  0  0
    0.8095   -1.0441    0.0000 C   0  0  0  0  0  0  0  0  0  0  0  0
   -1.3089   -0.7869    0.0000 C   0  0  2  0  0  0  0  0  0  0  0  0
    0.0227   -1.3316    0.0000 C   0  0  2  0  0  0  0  0  0  0  0  0
    1.4451    1.0668    0.0000 O   0  0  0  0  0  0  0  0  0  0  0  0
    2.2093   -0.1589    0.0000 C   0  0  0  0  0  0  0  0  0  0  0  0
    1.5359   -1.4300    0.0000 C   0  0  0  0  0  0  0  0  0  0  0  0
   -1.8234   -0.1211    0.0000 O   0  0  0  0  0  0  0  0  0  0  0  0
   -1.6267   -1.5510    0.0000 C   0  0  1  0  0  0  0  0  0  0  0  0
   -0.6431   -1.0214    0.0000 C   0  0  0  0  0  0  0  0  0  0  0  0
   -0.2951   -2.0958    0.0000 C   0  0  1  0  0  0  0  0  0  0  0  0
    0.6885   -1.5662    0.0000 C   0  0  0  0  0  0  0  0  0  0  0  0
    2.2320   -0.9836    0.0000 C   0  0  0  0  0  0  0  0  0  0  0  0
    1.3165   -2.2244    0.0000 C   0  0  0  0  0  0  0  0  0  0  0  0
   -2.6556   -0.2270    0.0000 C   0  0  0  0  0  0  0  0  0  0  0  0
   -2.4589   -1.6569    0.0000 C   0  0  2  0  0  0  0  0  0  0  0  0
   -1.1273   -2.2017    0.0000 C   0  0  0  0  0  0  0  0  0  0  0  0
   -0.3783   -1.3619    0.0000 C   0  0  0  0  0  0  0  0  0  0  0  0
    0.2043   -2.7465    0.0000 C   0  0  1  0  0  0  0  0  0  0  0  0
    0.9533   -1.9066    0.0000 C   0  0  0  0  0  0  0  0  0  0  0  0
   -2.5800   -0.8247    0.0000 O   0  0  0  0  0  0  0  0  0  0  0  0
   -2.3530   -2.4741    0.0000 C   0  0  0  0  0  0  0  0  0  0  0  0
   -3.2912   -1.7629    0.0000 C   0  0  0  0  0  0  0  0  0  0  0  0
    0.7793   -2.3228    0.0000 N   0  0  0  0  0  0  0  0  0  0  0  0
   -3.1853   -2.5800    0.0000 C   0  0  0  0  0  0  0  0  0  0  0  0
   -1.5359   -2.3530    0.0000 C   0  0  0  0  0  0  0  0  0  0  0  0
   -2.2471   -3.2912    0.0000 C   0  0  0  0  0  0  0  0  0  0  0  0
    1.5208   -3.2761    0.0000 C   0  0  0  0  0  0  0  0  0  0  0  0
    1.2030   -4.0402    0.0000 C   0  0  0  0  0  0  0  0  0  0  0  0
    1.3089   -4.8574    0.0000 C   0  0  0  0  0  0  0  0  0  0  0  0
    0.5372   -4.5396    0.0000 C   0  0  0  0  0  0  0  0  0  0  0  0
  1  2  1  0  0  0  0
  3  1  1  6  0  0  0
  2  4  2  0  0  0  0
  2  5  1  0  0  0  0
  3  6  1  0  0  0  0
  3  7  1  0  0  0  0
  4  8  1  0  0  0  0
  4  9  1  0  0  0  0
  5 10  2  0  0  0  0
  6 11  1  6  0  0  0
  6 12  1  0  0  0  0
  6 13  1  0  0  0  0
  7 14  1  0  0  0  0
  7 15  1  1  0  0  0
  9 16  2  0  0  0  0
 10 17  1  0  0  0  0
 11 18  1  0  0  0  0
 12 19  1  0  0  0  0
 12 20  1  6  0  0  0
 13 21  1  0  0  0  0
 14 22  1  0  0  0  0
 15 23  1  0  0  0  0
 19 24  1  0  0  0  0
 19 25  1  1  0  0  0
 19 26  1  0  0  0  0
 22 27  1  1  0  0  0
 25 28  1  0  0  0  0
 25 29  1  0  0  0  0
 25 30  1  0  0  0  0
 27 31  1  0  0  0  0
 31 32  1  0  0  0  0
 32 33  1  0  0  0  0
 32 34  1  0  0  0  0
  5  7  1  0  0  0  0
 10 16  1  0  0  0  0
 14 20  1  1  0  0  0
 14 21  1  0  0  0  0
 17 22  1  0  0  0  0
 23 27  1  0  0  0  0
 33 34  1  0  0  0  0
M  END

>  <name>
Buprenorphine

>  <ROTATABLE_BONDCOUNT>
5

>  <HBDScore>
0.5

>  <dipole>
6.24

>  <logD>
1.61

>  <MPOScore>
3.6410714285714283

>  <logDScore>
1.0

>  <MW>
467.650

>  <charge_dist(7.4)>
0.99

>  <CNS>
TRUE

>  <ArRings>
1

>  <HBD>
2

>  <BALABAN_INDEX>
1.42

>  <bpKa>
9.63

>  <TPSAScore>
1.0

>  <MWScore>
0.2310714285714287

>  <bpKaScore>
0.1849999999999996

>  <logPScore>
0.7250000000000001

>  <MPO_area>
40.51

>  <TPSA>
62.16

>  <logP>
3.55

$$$$

  Mrv1722703221715202D          

 16 16  0  0  0  0            999 V2000
    0.0000    0.0000    0.0000 Cl  0  0  0  0  0  0  0  0  0  0  0  0
   -0.7937    0.2250    0.0000 C   0  0  0  0  0  0  0  0  0  0  0  0
   -1.3875   -0.3438    0.0000 C   0  0  0  0  0  0  0  0  0  0  0  0
   -1.0000    1.0250    0.0000 C   0  0  0  0  0  0  0  0  0  0  0  0
   -2.1812   -0.1187    0.0000 C   0  0  0  0  0  0  0  0  0  0  0  0
   -1.7937    1.2500    0.0000 C   0  0  0  0  0  0  0  0  0  0  0  0
   -2.7750   -0.6875    0.0000 C   0  0  0  0  0  0  0  0  0  0  0  0
   -2.3875    0.6812    0.0000 C   0  0  0  0  0  0  0  0  0  0  0  0
   -2.5812   -1.4750    0.0000 O   0  0  0  0  0  0  0  0  0  0  0  0
   -3.5687   -0.4625    0.0000 C   0  0  1  0  0  0  0  0  0  0  0  0
   -3.7750    0.3375    0.0000 N   0  0  0  0  0  0  0  0  0  0  0  0
   -4.1625   -1.0313    0.0000 C   0  0  0  0  0  0  0  0  0  0  0  0
   -4.5687    0.5625    0.0000 C   0  0  0  0  0  0  0  0  0  0  0  0
   -4.3562    1.3562    0.0000 C   0  0  0  0  0  0  0  0  0  0  0  0
   -4.7937   -0.2187    0.0000 C   0  0  0  0  0  0  0  0  0  0  0  0
   -5.3625    0.7875    0.0000 C   0  0  0  0  0  0  0  0  0  0  0  0
  1  2  1  0  0  0  0
  2  3  2  0  0  0  0
  2  4  1  0  0  0  0
  3  5  1  0  0  0  0
  4  6  2  0  0  0  0
  5  7  1  0  0  0  0
  5  8  2  0  0  0  0
  7  9  2  0  0  0  0
  7 10  1  0  0  0  0
 10 11  1  6  0  0  0
 10 12  1  0  0  0  0
 11 13  1  0  0  0  0
 13 14  1  0  0  0  0
 13 15  1  0  0  0  0
 13 16  1  0  0  0  0
  6  8  1  0  0  0  0
M  END

>  <name>
Bupropion

>  <ROTATABLE_BONDCOUNT>
4

>  <HBDScore>
0.8333333333333334

>  <dipole>
5.16

>  <logD>
2.39

>  <MPOScore>
4.848333333333333

>  <logDScore>
0.8049999999999999

>  <MW>
239.74

>  <charge_dist(7.4)>
0.87

>  <CNS>
TRUE

>  <ArRings>
1

>  <HBD>
1

>  <BALABAN_INDEX>
2.46

>  <bpKa>
8.22

>  <TPSAScore>
0.45500000000000007

>  <MWScore>
1.0

>  <bpKaScore>
0.8899999999999997

>  <logPScore>
0.865

>  <MPO_area>
64.55

>  <TPSA>
29.10

>  <logP>
3.27

$$$$

  Mrv1722703221715202D          

 28 31  0  0  0  0            999 V2000
    0.0000    0.0000    0.0000 O   0  0  0  0  0  0  0  0  0  0  0  0
   -0.5566    0.6278    0.0000 C   0  0  0  0  0  0  0  0  0  0  0  0
   -0.2977    1.4173    0.0000 N   0  0  0  0  0  0  0  0  0  0  0  0
   -1.3720    0.4725    0.0000 C   0  0  0  0  0  0  0  0  0  0  0  0
   -0.8543    2.0452    0.0000 C   0  0  0  0  0  0  0  0  0  0  0  0
    0.5048    1.5857    0.0000 C   0  0  0  0  0  0  0  0  0  0  0  0
   -1.9287    1.1002    0.0000 C   0  0  0  0  0  0  0  0  0  0  0  0
   -0.5954    2.8348    0.0000 O   0  0  0  0  0  0  0  0  0  0  0  0
   -1.6698    1.8898    0.0000 C   0  0  0  0  0  0  0  0  0  0  0  0
    1.0485    0.9708    0.0000 C   0  0  0  0  0  0  0  0  0  0  0  0
   -2.2781    0.3560    0.0000 C   0  0  0  0  0  0  0  0  0  0  0  0
   -2.5435    1.6698    0.0000 C   0  0  0  0  0  0  0  0  0  0  0  0
    1.8510    1.1391    0.0000 C   0  0  0  0  0  0  0  0  0  0  0  0
   -3.1066    0.4595    0.0000 C   0  0  0  0  0  0  0  0  0  0  0  0
   -3.2684    1.2685    0.0000 C   0  0  0  0  0  0  0  0  0  0  0  0
    2.3946    0.5242    0.0000 C   0  0  0  0  0  0  0  0  0  0  0  0
    3.1972    0.6925    0.0000 N   0  0  0  0  0  0  0  0  0  0  0  0
    3.7408    0.0777    0.0000 C   0  0  0  0  0  0  0  0  0  0  0  0
    3.4560    1.4821    0.0000 C   0  0  0  0  0  0  0  0  0  0  0  0
    4.5434    0.2460    0.0000 C   0  0  0  0  0  0  0  0  0  0  0  0
    4.2586    1.6504    0.0000 C   0  0  0  0  0  0  0  0  0  0  0  0
    4.8022    1.0355    0.0000 N   0  0  0  0  0  0  0  0  0  0  0  0
    5.6048    1.2038    0.0000 C   0  0  0  0  0  0  0  0  0  0  0  0
    6.1484    0.5890    0.0000 N   0  0  0  0  0  0  0  0  0  0  0  0
    5.8636    1.9934    0.0000 N   0  0  0  0  0  0  0  0  0  0  0  0
    6.9509    0.7572    0.0000 C   0  0  0  0  0  0  0  0  0  0  0  0
    6.6661    2.1616    0.0000 C   0  0  0  0  0  0  0  0  0  0  0  0
    7.2098    1.5468    0.0000 C   0  0  0  0  0  0  0  0  0  0  0  0
  1  2  2  0  0  0  0
  2  3  1  0  0  0  0
  2  4  1  0  0  0  0
  3  5  1  0  0  0  0
  3  6  1  0  0  0  0
  4  7  1  0  0  0  0
  5  8  2  0  0  0  0
  5  9  1  0  0  0  0
  6 10  1  0  0  0  0
  7 11  1  0  0  0  0
  7 12  1  0  0  0  0
 10 13  1  0  0  0  0
 11 14  1  0  0  0  0
 12 15  1  0  0  0  0
 13 16  1  0  0  0  0
 16 17  1  0  0  0  0
 17 18  1  0  0  0  0
 17 19  1  0  0  0  0
 18 20  1  0  0  0  0
 19 21  1  0  0  0  0
 20 22  1  0  0  0  0
 22 23  1  0  0  0  0
 23 24  2  0  0  0  0
 23 25  1  0  0  0  0
 24 26  1  0  0  0  0
 25 27  2  0  0  0  0
 26 28  2  0  0  0  0
  7  9  1  0  0  0  0
 14 15  1  0  0  0  0
 21 22  1  0  0  0  0
 27 28  1  0  0  0  0
M  END

>  <name>
Buspirone

>  <ROTATABLE_BONDCOUNT>
6

>  <HBDScore>
1.0

>  <dipole>
4.19

>  <logD>
1.35

>  <MPOScore>
5.817771428571429

>  <logDScore>
1.0

>  <MW>
385.512

>  <charge_dist(7.4)>
0.62

>  <CNS>
TRUE

>  <ArRings>
1

>  <HBD>
0

>  <BALABAN_INDEX>
1.08

>  <bpKa>
7.62

>  <TPSAScore>
1.0

>  <MWScore>
0.8177714285714286

>  <bpKaScore>
1.0

>  <logPScore>
1.0

>  <MPO_area>
93.93

>  <TPSA>
69.64

>  <logP>
1.78

$$$$

  Mrv1722703221715202D          

 15 15  0  0  0  0            999 V2000
    0.0000    0.0000    0.0000 O   0  0  0  0  0  0  0  0  0  0  0  0
    0.8119    0.1571    0.0000 C   0  0  0  0  0  0  0  0  0  0  0  0
    1.3423   -0.4714    0.0000 N   0  0  0  0  0  0  0  0  0  0  0  0
    1.0869    0.9494    0.0000 N   0  0  0  0  0  0  0  0  0  0  0  0
    2.1542   -0.3143    0.0000 C   0  0  0  0  0  0  0  0  0  0  0  0
    1.8988    1.1065    0.0000 C   0  0  0  0  0  0  0  0  0  0  0  0
    2.6846   -0.9429    0.0000 O   0  0  0  0  0  0  0  0  0  0  0  0
    2.4292    0.4780    0.0000 C   0  0  0  0  0  0  0  0  0  0  0  0
    2.1738    1.8988    0.0000 O   0  0  0  0  0  0  0  0  0  0  0  0
    3.1429    0.0720    0.0000 C   0  0  2  0  0  0  0  0  0  0  0  0
    2.9530    1.1262    0.0000 C   0  0  0  0  0  0  0  0  0  0  0  0
    3.8565    0.4976    0.0000 C   0  0  0  0  0  0  0  0  0  0  0  0
    3.1429   -0.7530    0.0000 C   0  0  0  0  0  0  0  0  0  0  0  0
    3.7649    0.9953    0.0000 C   0  0  0  0  0  0  0  0  0  0  0  0
    4.5703    0.0917    0.0000 C   0  0  0  0  0  0  0  0  0  0  0  0
  1  2  2  0  0  0  0
  2  3  1  0  0  0  0
  2  4  1  0  0  0  0
  3  5  1  0  0  0  0
  4  6  1  0  0  0  0
  5  7  2  0  0  0  0
  5  8  1  0  0  0  0
  6  9  2  0  0  0  0
  8 10  1  0  0  0  0
  8 11  1  0  0  0  0
 10 12  1  0  0  0  0
 10 13  1  6  0  0  0
 11 14  1  0  0  0  0
 12 15  1  0  0  0  0
  6  8  1  0  0  0  0
M  END

>  <name>
Butabarbital

>  <ROTATABLE_BONDCOUNT>
3

>  <HBDScore>
0.5

>  <dipole>
1.55

>  <logD>
1.19

>  <MPOScore>
5.5

>  <logDScore>
1.0

>  <MW>
212.249

>  <charge_dist(7.4)>
-0.45

>  <CNS>
TRUE

>  <ArRings>
0

>  <HBD>
2

>  <BALABAN_INDEX>
2.74

>  <bpKa>
0.0

>  <TPSAScore>
1.0

>  <MWScore>
1.0

>  <bpKaScore>
1.0

>  <logPScore>
1.0

>  <MPO_area>
83.33

>  <TPSA>
75.27

>  <logP>
1.45

$$$$

  Mrv1722703221715202D          

 33 36  0  0  0  0            999 V2000
    0.0000    0.0000    0.0000 O   0  0  0  0  0  0  0  0  0  0  0  0
    0.7821    0.2340    0.0000 C   0  0  0  0  0  0  0  0  0  0  0  0
    0.9759    1.0427    0.0000 N   0  0  0  0  0  0  0  0  0  0  0  0
    1.3703   -0.3275    0.0000 N   0  0  0  0  0  0  0  0  0  0  0  0
    0.3743    1.6176    0.0000 C   0  0  0  0  0  0  0  0  0  0  0  0
    1.7580    1.2767    0.0000 C   0  0  0  0  0  0  0  0  0  0  0  0
    1.1631   -1.1230    0.0000 C   0  0  0  0  0  0  0  0  0  0  0  0
    0.5682    2.4264    0.0000 O   0  0  0  0  0  0  0  0  0  0  0  0
   -0.4211    1.3971    0.0000 C   0  0  2  0  0  0  0  0  0  0  0  0
    2.3462    0.7153    0.0000 C   0  0  0  0  0  0  0  0  0  0  0  0
    1.7513   -1.6845    0.0000 C   0  0  0  0  0  0  0  0  0  0  0  0
   -1.0227    1.9719    0.0000 C   0  0  0  0  0  0  0  0  0  0  0  0
   -0.6283    0.6016    0.0000 C   0  0  0  0  0  0  0  0  0  0  0  0
    3.1283    0.9492    0.0000 C   0  0  0  0  0  0  0  0  0  0  0  0
   -1.8182    1.7513    0.0000 N   0  0  0  0  0  0  0  0  0  0  0  0
   -1.4238    0.3810    0.0000 C   0  0  2  0  0  0  0  0  0  0  0  0
    3.7166    0.3877    0.0000 N   0  0  0  0  0  0  0  0  0  0  0  0
   -2.0254    0.9559    0.0000 C   0  0  2  0  0  0  0  0  0  0  0  0
   -2.4198    2.3262    0.0000 C   0  0  0  0  0  0  0  0  0  0  0  0
   -1.6310   -0.4144    0.0000 C   0  0  0  0  0  0  0  0  0  0  0  0
    4.4986    0.6217    0.0000 C   0  0  0  0  0  0  0  0  0  0  0  0
    3.5094   -0.4078    0.0000 C   0  0  0  0  0  0  0  0  0  0  0  0
   -2.8209    0.7353    0.0000 C   0  0  0  0  0  0  0  0  0  0  0  0
   -2.2259    3.1350    0.0000 C   0  0  0  0  0  0  0  0  0  0  0  0
   -2.4264   -0.6350    0.0000 C   0  0  0  0  0  0  0  0  0  0  0  0
   -1.0427   -0.9759    0.0000 C   0  0  0  0  0  0  0  0  0  0  0  0
   -3.0281   -0.0602    0.0000 C   0  0  0  0  0  0  0  0  0  0  0  0
   -2.8275    3.7099    0.0000 C   0  0  0  0  0  0  0  0  0  0  0  0
   -2.6337   -1.4305    0.0000 C   0  0  0  0  0  0  0  0  0  0  0  0
   -1.2500   -1.7714    0.0000 C   0  0  0  0  0  0  0  0  0  0  0  0
   -3.7166   -0.5147    0.0000 C   0  0  0  0  0  0  0  0  0  0  0  0
   -3.4893   -1.3035    0.0000 N   0  0  0  0  0  2  0  0  0  0  0  0
   -2.0454   -1.9920    0.0000 C   0  0  0  0  0  0  0  0  0  0  0  0
  1  2  2  0  0  0  0
  2  3  1  0  0  0  0
  2  4  1  0  0  0  0
  3  5  1  0  0  0  0
  3  6  1  0  0  0  0
  4  7  1  0  0  0  0
  5  8  2  0  0  0  0
  9  5  1  1  0  0  0
  6 10  1  0  0  0  0
  7 11  1  0  0  0  0
  9 12  1  0  0  0  0
  9 13  1  0  0  0  0
 10 14  1  0  0  0  0
 12 15  1  0  0  0  0
 16 13  1  1  0  0  0
 14 17  1  0  0  0  0
 18 15  1  6  0  0  0
 15 19  1  0  0  0  0
 16 20  1  0  0  0  0
 17 21  1  0  0  0  0
 17 22  1  0  0  0  0
 18 23  1  0  0  0  0
 19 24  1  0  0  0  0
 20 25  2  0  0  0  0
 20 26  1  0  0  0  0
 23 27  1  0  0  0  0
 24 28  2  0  0  0  0
 25 29  1  0  0  0  0
 26 30  2  0  0  0  0
 27 31  2  0  0  0  0
 29 32  1  0  0  0  0
 29 33  2  0  0  0  0
 16 18  1  0  0  0  0
 25 27  1  0  0  0  0
 30 33  1  0  0  0  0
 31 32  1  0  0  0  0
M  RAD  1  32   2
M  END

>  <name>
Cabergoline

>  <ROTATABLE_BONDCOUNT>
8

>  <HBDScore>
0.8333333333333334

>  <logD>
-0.08

>  <MPOScore>
4.531140476190476

>  <logDScore>
1.0

>  <MW>
450.607

>  <charge_dist(7.4)>
1.66

>  <CNS>
TRUE

>  <ArRings>
2

>  <HBD>
1

>  <BALABAN_INDEX>
1.47

>  <bpKa>
9.31

>  <TPSAScore>
1.0

>  <MWScore>
0.35280714285714265

>  <bpKaScore>
0.34499999999999975

>  <logPScore>
1.0

>  <MPO_area>
59.9

>  <TPSA>
68.78

>  <logP>
2.31

$$$$

  Mrv1722703221715202D          

 14 15  0  0  0  0            999 V2000
    0.0000    0.0000    0.0000 O   0  0  0  0  0  0  0  0  0  0  0  0
    0.8123   -0.1310    0.0000 C   0  0  0  0  0  0  0  0  0  0  0  0
    1.1005   -0.9040    0.0000 N   0  0  0  0  0  0  0  0  0  0  0  0
    1.3363    0.5175    0.0000 N   0  0  0  0  0  0  0  0  0  0  0  0
    1.9128   -1.0350    0.0000 C   0  0  0  0  0  0  0  0  0  0  0  0
    0.5634   -1.5394    0.0000 C   0  0  0  0  0  0  0  0  0  0  0  0
    2.1486    0.3865    0.0000 C   0  0  0  0  0  0  0  0  0  0  0  0
    1.0350    1.3036    0.0000 C   0  0  0  0  0  0  0  0  0  0  0  0
    2.2010   -1.8080    0.0000 O   0  0  0  0  0  0  0  0  0  0  0  0
    2.4368   -0.3865    0.0000 C   0  0  0  0  0  0  0  0  0  0  0  0
    2.7906    0.9171    0.0000 N   0  0  0  0  0  0  0  0  0  0  0  0
    3.2622   -0.3406    0.0000 N   0  0  0  0  0  0  0  0  0  0  0  0
    3.4784    0.4651    0.0000 C   0  0  0  0  0  0  0  0  0  0  0  0
    3.7797   -0.9826    0.0000 C   0  0  0  0  0  0  0  0  0  0  0  0
  1  2  2  0  0  0  0
  2  3  1  0  0  0  0
  2  4  1  0  0  0  0
  3  5  1  0  0  0  0
  3  6  1  0  0  0  0
  4  7  1  0  0  0  0
  4  8  1  0  0  0  0
  5  9  2  0  0  0  0
  5 10  1  0  0  0  0
  7 11  1  0  0  0  0
 10 12  1  0  0  0  0
 11 13  2  0  0  0  0
 12 14  1  0  0  0  0
  7 10  2  0  0  0  0
 12 13  1  0  0  0  0
M  END

>  <name>
Caffeine

>  <ROTATABLE_BONDCOUNT>
0

>  <HBDScore>
1.0

>  <dipole>
5.21

>  <logD>
-0.55

>  <MPOScore>
6.0

>  <logDScore>
1.0

>  <MW>
194.194

>  <charge_dist(7.4)>
0.00

>  <CNS>
TRUE

>  <ArRings>
2

>  <HBD>
0

>  <BALABAN_INDEX>
2.23

>  <bpKa>
-1.16

>  <TPSAScore>
1.0

>  <MWScore>
1.0

>  <bpKaScore>
1.0

>  <logPScore>
1.0

>  <MPO_area>
100.0

>  <TPSA>
58.44

>  <logP>
-0.55

$$$$

  Mrv1722703221715202D          

 18 20  0  0  0  0            999 V2000
    0.0000    0.0000    0.0000 O   0  0  0  0  0  0  0  0  0  0  0  0
    0.7116   -0.4048    0.0000 C   0  0  0  0  0  0  0  0  0  0  0  0
    0.7051   -1.2273    0.0000 N   0  0  0  0  0  0  0  0  0  0  0  0
    1.4232    0.0130    0.0000 N   0  0  0  0  0  0  0  0  0  0  0  0
   -0.0457   -1.5799    0.0000 C   0  0  0  0  0  0  0  0  0  0  0  0
    1.4428   -1.5799    0.0000 C   0  0  0  0  0  0  0  0  0  0  0  0
   -0.2350   -2.3829    0.0000 C   0  0  0  0  0  0  0  0  0  0  0  0
   -0.6594   -1.0119    0.0000 C   0  0  0  0  0  0  0  0  0  0  0  0
    1.6191   -2.3829    0.0000 C   0  0  0  0  0  0  0  0  0  0  0  0
    2.0434   -1.0119    0.0000 C   0  0  0  0  0  0  0  0  0  0  0  0
    0.2742   -3.0227    0.0000 C   0  0  0  0  0  0  0  0  0  0  0  0
   -1.0315   -2.6179    0.0000 C   0  0  0  0  0  0  0  0  0  0  0  0
   -1.4559   -1.2470    0.0000 C   0  0  0  0  0  0  0  0  0  0  0  0
    1.0968   -3.0227    0.0000 C   0  0  0  0  0  0  0  0  0  0  0  0
    2.4025   -2.6179    0.0000 C   0  0  0  0  0  0  0  0  0  0  0  0
    2.8268   -1.2470    0.0000 C   0  0  0  0  0  0  0  0  0  0  0  0
   -1.6452   -2.0499    0.0000 C   0  0  0  0  0  0  0  0  0  0  0  0
    3.0031   -2.0499    0.0000 C   0  0  0  0  0  0  0  0  0  0  0  0
  1  2  2  0  0  0  0
  2  3  1  0  0  0  0
  2  4  1  0  0  0  0
  3  5  1  0  0  0  0
  3  6  1  0  0  0  0
  5  7  2  0  0  0  0
  5  8  1  0  0  0  0
  6  9  2  0  0  0  0
  6 10  1  0  0  0  0
  7 11  1  0  0  0  0
  7 12  1  0  0  0  0
  8 13  2  0  0  0  0
  9 14  1  0  0  0  0
  9 15  1  0  0  0  0
 10 16  2  0  0  0  0
 12 17  2  0  0  0  0
 15 18  2  0  0  0  0
 11 14  2  0  0  0  0
 13 17  1  0  0  0  0
 16 18  1  0  0  0  0
M  END

>  <name>
Carbamazepine

>  <ROTATABLE_BONDCOUNT>
0

>  <HBDScore>
0.8333333333333334

>  <dipole>
3.11

>  <logD>
2.77

>  <MPOScore>
5.448333333333333

>  <logDScore>
0.615

>  <MW>
236.274

>  <charge_dist(7.4)>
-0.00

>  <CNS>
TRUE

>  <ArRings>
2

>  <HBD>
1

>  <BALABAN_INDEX>
1.85

>  <bpKa>
-3.75

>  <TPSAScore>
1.0

>  <MWScore>
1.0

>  <bpKaScore>
1.0

>  <logPScore>
1.0

>  <MPO_area>
82.68

>  <TPSA>
46.33

>  <logP>
2.77

$$$$

  Mrv1722703221715202D          

 20 21  0  0  0  0            999 V2000
    0.0000    0.0000    0.0000 Cl  0  0  0  0  0  0  0  0  0  0  0  0
   -0.8046    0.1885    0.0000 C   0  0  0  0  0  0  0  0  0  0  0  0
   -1.3640   -0.4086    0.0000 C   0  0  0  0  0  0  0  0  0  0  0  0
   -1.0560    0.9743    0.0000 C   0  0  0  0  0  0  0  0  0  0  0  0
   -2.1686   -0.2200    0.0000 C   0  0  0  0  0  0  0  0  0  0  0  0
   -1.8606    1.1629    0.0000 C   0  0  0  0  0  0  0  0  0  0  0  0
   -2.4200    0.5657    0.0000 C   0  0  0  0  0  0  0  0  0  0  0  0
   -3.2246    0.7543    0.0000 C   0  0  2  0  0  0  0  0  0  0  0  0
   -3.7840    0.1571    0.0000 O   0  0  0  0  0  0  0  0  0  0  0  0
   -3.4761    1.5400    0.0000 C   0  0  0  0  0  0  0  0  0  0  0  0
   -4.5886    0.3457    0.0000 C   0  0  0  0  0  0  0  0  0  0  0  0
   -2.9292    2.1498    0.0000 N   0  0  0  0  0  0  0  0  0  0  0  0
   -4.2806    1.7286    0.0000 C   0  0  0  0  0  0  0  0  0  0  0  0
   -5.1481   -0.2514    0.0000 C   0  0  0  0  0  0  0  0  0  0  0  0
   -3.1806    2.9354    0.0000 C   0  0  0  0  0  0  0  0  0  0  0  0
   -4.5320    2.5143    0.0000 C   0  0  0  0  0  0  0  0  0  0  0  0
   -5.9526   -0.0628    0.0000 N   0  0  0  0  0  0  0  0  0  0  0  0
   -3.9852    3.1240    0.0000 C   0  0  0  0  0  0  0  0  0  0  0  0
   -6.5121   -0.6600    0.0000 C   0  0  0  0  0  0  0  0  0  0  0  0
   -6.2041    0.7228    0.0000 C   0  0  0  0  0  0  0  0  0  0  0  0
  1  2  1  0  0  0  0
  2  3  2  0  0  0  0
  2  4  1  0  0  0  0
  3  5  1  0  0  0  0
  4  6  2  0  0  0  0
  5  7  2  0  0  0  0
  7  8  1  0  0  0  0
  8  9  1  6  0  0  0
  8 10  1  0  0  0  0
  9 11  1  0  0  0  0
 10 12  2  0  0  0  0
 10 13  1  0  0  0  0
 11 14  1  0  0  0  0
 12 15  1  0  0  0  0
 13 16  2  0  0  0  0
 14 17  1  0  0  0  0
 15 18  2  0  0  0  0
 17 19  1  0  0  0  0
 17 20  1  0  0  0  0
  6  7  1  0  0  0  0
 16 18  1  0  0  0  0
M  END

>  <name>
Carbinoxamine

>  <ROTATABLE_BONDCOUNT>
6

>  <HBDScore>
1.0

>  <dipole>
1.37

>  <logD>
1.79

>  <MPOScore>
4.698

>  <logDScore>
1.0

>  <MW>
290.79

>  <charge_dist(7.4)>
0.97

>  <CNS>
TRUE

>  <ArRings>
2

>  <HBD>
0

>  <BALABAN_INDEX>
1.88

>  <bpKa>
8.87

>  <TPSAScore>
0.26799999999999996

>  <MWScore>
1.0

>  <bpKaScore>
0.5650000000000004

>  <logPScore>
0.865

>  <MPO_area>
62.89

>  <TPSA>
25.36

>  <logP>
3.27

$$$$

  Mrv1722703221715202D          

 18 17  0  0  0  0            999 V2000
    0.0000    0.0000    0.0000 O   0  0  0  0  0  0  0  0  0  0  0  0
   -0.3010    0.7748    0.0000 C   0  0  0  0  0  0  0  0  0  0  0  0
   -1.1205    0.9157    0.0000 O   0  0  0  0  0  0  0  0  0  0  0  0
    0.2113    1.4215    0.0000 N   0  0  0  0  0  0  0  0  0  0  0  0
   -1.6456    0.2818    0.0000 C   0  0  0  0  0  0  0  0  0  0  0  0
    1.0181    1.2934    0.0000 C   0  0  0  0  0  0  0  0  0  0  0  0
   -2.4652    0.4226    0.0000 C   0  0  2  0  0  0  0  0  0  0  0  0
    1.5303    1.9401    0.0000 C   0  0  0  0  0  0  0  0  0  0  0  0
    1.3062    0.5314    0.0000 C   0  0  0  0  0  0  0  0  0  0  0  0
   -3.2848    0.5635    0.0000 C   0  0  0  0  0  0  0  0  0  0  0  0
   -2.6060   -0.3842    0.0000 C   0  0  0  0  0  0  0  0  0  0  0  0
   -2.3371    1.2422    0.0000 C   0  0  0  0  0  0  0  0  0  0  0  0
   -3.5857    1.3383    0.0000 O   0  0  0  0  0  0  0  0  0  0  0  0
   -1.9722   -0.8964    0.0000 C   0  0  0  0  0  0  0  0  0  0  0  0
   -4.4053    1.4791    0.0000 C   0  0  0  0  0  0  0  0  0  0  0  0
   -2.1130   -1.7032    0.0000 C   0  0  0  0  0  0  0  0  0  0  0  0
   -4.7063    2.2539    0.0000 O   0  0  0  0  0  0  0  0  0  0  0  0
   -4.9304    0.8452    0.0000 N   0  0  0  0  0  0  0  0  0  0  0  0
  1  2  2  0  0  0  0
  2  3  1  0  0  0  0
  2  4  1  0  0  0  0
  3  5  1  0  0  0  0
  4  6  1  0  0  0  0
  5  7  1  0  0  0  0
  6  8  1  0  0  0  0
  6  9  1  0  0  0  0
  7 10  1  1  0  0  0
  7 11  1  0  0  0  0
  7 12  1  0  0  0  0
 10 13  1  0  0  0  0
 11 14  1  0  0  0  0
 13 15  1  0  0  0  0
 14 16  1  0  0  0  0
 15 17  2  0  0  0  0
 15 18  1  0  0  0  0
M  END

>  <name>
Carisoprodol

>  <ROTATABLE_BONDCOUNT>
9

>  <HBDScore>
0.5

>  <dipole>
1.72

>  <logD>
1.92

>  <MPOScore>
5.4783333333333335

>  <logDScore>
1.0

>  <MW>
260.334

>  <charge_dist(7.4)>
-0.00

>  <CNS>
TRUE

>  <ArRings>
0

>  <HBD>
2

>  <BALABAN_INDEX>
4.15

>  <bpKa>
0.0

>  <TPSAScore>
0.9783333333333332

>  <MWScore>
1.0

>  <bpKaScore>
1.0

>  <logPScore>
1.0

>  <MPO_area>
82.79

>  <TPSA>
90.65

>  <logP>
1.92

$$$$

  Mrv1722703221715202D          

 30 33  0  0  0  0            999 V2000
    0.0000    0.0000    0.0000 O   0  0  0  0  0  0  0  0  0  0  0  0
   -0.6884   -0.4546    0.0000 C   0  0  0  0  0  0  0  0  0  0  0  0
    0.7339   -0.3572    0.0000 C   0  0  0  0  0  0  0  0  0  0  0  0
   -1.4353   -0.0844    0.0000 C   0  0  0  0  0  0  0  0  0  0  0  0
   -0.6364   -1.2729    0.0000 C   0  0  0  0  0  0  0  0  0  0  0  0
    1.4093    0.1104    0.0000 C   0  0  1  0  0  0  0  0  0  0  0  0
   -2.1237   -0.5391    0.0000 C   0  0  0  0  0  0  0  0  0  0  0  0
   -1.6691    0.7144    0.0000 C   0  0  0  0  0  0  0  0  0  0  0  0
   -1.3249   -1.7275    0.0000 C   0  0  0  0  0  0  0  0  0  0  0  0
    1.3444    0.9417    0.0000 O   0  0  0  0  0  0  0  0  0  0  0  0
    2.1432   -0.2468    0.0000 C   0  0  0  0  0  0  0  0  0  0  0  0
   -2.7796   -0.0260    0.0000 N   0  0  0  0  0  2  0  0  0  0  0  0
   -2.0717   -1.3573    0.0000 C   0  0  0  0  0  0  0  0  0  0  0  0
   -2.5004    0.7469    0.0000 C   0  0  0  0  0  0  0  0  0  0  0  0
   -1.2404    1.4223    0.0000 C   0  0  0  0  0  0  0  0  0  0  0  0
    2.8186    0.2208    0.0000 N   0  0  0  0  0  0  0  0  0  0  0  0
   -2.8965    1.4807    0.0000 C   0  0  0  0  0  0  0  0  0  0  0  0
   -1.6366    2.1562    0.0000 C   0  0  0  0  0  0  0  0  0  0  0  0
    3.5525   -0.1364    0.0000 C   0  0  0  0  0  0  0  0  0  0  0  0
   -2.4679    2.1887    0.0000 C   0  0  0  0  0  0  0  0  0  0  0  0
    4.2279    0.3312    0.0000 C   0  0  0  0  0  0  0  0  0  0  0  0
    4.9618   -0.0260    0.0000 O   0  0  0  0  0  0  0  0  0  0  0  0
    5.6372    0.4416    0.0000 C   0  0  0  0  0  0  0  0  0  0  0  0
    6.3710    0.0844    0.0000 C   0  0  0  0  0  0  0  0  0  0  0  0
    5.5722    1.2729    0.0000 C   0  0  0  0  0  0  0  0  0  0  0  0
    6.4230   -0.7339    0.0000 O   0  0  0  0  0  0  0  0  0  0  0  0
    7.0465    0.5520    0.0000 C   0  0  0  0  0  0  0  0  0  0  0  0
    6.2476    1.7405    0.0000 C   0  0  0  0  0  0  0  0  0  0  0  0
    7.1569   -1.0911    0.0000 C   0  0  0  0  0  0  0  0  0  0  0  0
    6.9815    1.3833    0.0000 C   0  0  0  0  0  0  0  0  0  0  0  0
  1  2  1  0  0  0  0
  1  3  1  0  0  0  0
  2  4  2  0  0  0  0
  2  5  1  0  0  0  0
  3  6  1  0  0  0  0
  4  7  1  0  0  0  0
  4  8  1  0  0  0  0
  5  9  2  0  0  0  0
  6 10  1  1  0  0  0
  6 11  1  0  0  0  0
  7 12  1  0  0  0  0
  7 13  2  0  0  0  0
  8 14  2  0  0  0  0
  8 15  1  0  0  0  0
 11 16  1  0  0  0  0
 14 17  1  0  0  0  0
 15 18  2  0  0  0  0
 16 19  1  0  0  0  0
 17 20  2  0  0  0  0
 19 21  1  0  0  0  0
 21 22  1  0  0  0  0
 22 23  1  0  0  0  0
 23 24  2  0  0  0  0
 23 25  1  0  0  0  0
 24 26  1  0  0  0  0
 24 27  1  0  0  0  0
 25 28  2  0  0  0  0
 26 29  1  0  0  0  0
 27 30  2  0  0  0  0
  9 13  1  0  0  0  0
 12 14  1  0  0  0  0
 18 20  1  0  0  0  0
 28 30  1  0  0  0  0
M  RAD  1  12   2
M  END

>  <name>
Carvedilol

>  <ROTATABLE_BONDCOUNT>
10

>  <HBDScore>
0.5

>  <logD>
2.16

>  <MPOScore>
4.470185714285714

>  <logDScore>
0.9199999999999999

>  <MW>
405.474

>  <charge_dist(7.4)>
0.96

>  <CNS>
TRUE

>  <ArRings>
4

>  <HBD>
2

>  <BALABAN_INDEX>
1.01

>  <bpKa>
8.74

>  <TPSAScore>
1.0

>  <MWScore>
0.6751857142857144

>  <bpKaScore>
0.6299999999999999

>  <logPScore>
0.7450000000000001

>  <MPO_area>
55.81

>  <TPSA>
72.84

>  <logP>
3.51

$$$$

  Mrv1722703221715202D          

 13 15  0  0  0  0            999 V2000
    0.0000    0.0000    0.0000 S   0  0  0  0  0  0  0  0  0  0  0  0
    0.1489   -0.8090    0.0000 C   0  0  1  0  0  0  0  0  0  0  0  0
   -0.8284    0.1100    0.0000 C   0  0  0  0  0  0  0  0  0  0  0  0
   -0.5824   -1.2037    0.0000 O   0  0  0  0  0  0  0  0  0  0  0  0
    0.8931   -1.1519    0.0000 C   0  0  0  0  0  0  0  0  0  0  0  0
   -1.1843   -0.6342    0.0000 C   0  0  1  0  0  0  0  0  0  0  0  0
   -1.4626   -1.4108    0.0000 C   0  0  0  0  0  0  0  0  0  0  0  0
   -1.7344    0.0000    0.0000 C   0  0  0  0  0  0  0  0  0  0  0  0
   -2.2845   -1.5596    0.0000 C   0  0  0  0  0  0  0  0  0  0  0  0
   -1.5791   -0.6925    0.0000 C   0  0  0  0  0  0  0  0  0  0  0  0
   -2.5563   -0.1489    0.0000 N   0  0  0  0  0  0  0  0  0  0  0  0
   -2.8346   -0.9254    0.0000 C   0  0  0  0  0  0  0  0  0  0  0  0
   -1.8768   -0.3495    0.0000 C   0  0  0  0  0  0  0  0  0  0  0  0
  1  2  1  0  0  0  0
  1  3  1  0  0  0  0
  2  4  1  0  0  0  0
  2  5  1  6  0  0  0
  3  6  1  0  0  0  0
  6  7  1  0  0  0  0
  6  8  1  0  0  0  0
  7  9  1  0  0  0  0
  7 10  1  0  0  0  0
  8 11  1  0  0  0  0
  9 12  1  0  0  0  0
 10 13  1  0  0  0  0
  6  4  1  6  0  0  0
 11 12  1  0  0  0  0
 11 13  1  0  0  0  0
M  END

>  <name>
Cevimeline

>  <ROTATABLE_BONDCOUNT>
0

>  <HBDScore>
1.0

>  <dipole>
1.09

>  <logD>
-0.22

>  <MPOScore>
4.705

>  <logDScore>
1.0

>  <MW>
199.31

>  <charge_dist(7.4)>
0.94

>  <CNS>
TRUE

>  <ArRings>
0

>  <HBD>
0

>  <BALABAN_INDEX>
1.47

>  <bpKa>
8.59

>  <TPSAScore>
0.0

>  <MWScore>
1.0

>  <bpKaScore>
0.7050000000000001

>  <logPScore>
1.0

>  <MPO_area>
61.75

>  <TPSA>
12.47

>  <logP>
1.00

$$$$

  Mrv1722703221715202D          

 20 21  0  0  0  0            999 V2000
    0.0000    0.0000    0.0000 Cl  0  0  0  0  0  0  0  0  0  0  0  0
   -0.7969    0.2322    0.0000 C   0  0  0  0  0  0  0  0  0  0  0  0
   -1.3931   -0.3326    0.0000 C   0  0  0  0  0  0  0  0  0  0  0  0
   -0.9978    1.0354    0.0000 C   0  0  0  0  0  0  0  0  0  0  0  0
   -2.1901   -0.1004    0.0000 C   0  0  0  0  0  0  0  0  0  0  0  0
   -1.2048   -1.1233    0.0000 C   0  0  1  0  0  0  0  0  0  0  0  0
   -1.7947    1.2676    0.0000 C   0  0  0  0  0  0  0  0  0  0  0  0
   -2.3909    0.7028    0.0000 C   0  0  0  0  0  0  0  0  0  0  0  0
   -1.0166   -1.9139    0.0000 O   0  0  0  0  0  0  0  0  0  0  0  0
   -2.0081   -1.3115    0.0000 C   0  0  0  0  0  0  0  0  0  0  0  0
   -0.4141   -0.9225    0.0000 C   0  0  0  0  0  0  0  0  0  0  0  0
   -2.2403   -2.0959    0.0000 C   0  0  0  0  0  0  0  0  0  0  0  0
   -2.5854   -0.7154    0.0000 C   0  0  0  0  0  0  0  0  0  0  0  0
    0.1506   -1.5060    0.0000 C   0  0  0  0  0  0  0  0  0  0  0  0
   -3.0435   -2.2842    0.0000 C   0  0  0  0  0  0  0  0  0  0  0  0
   -3.3886   -0.9036    0.0000 C   0  0  0  0  0  0  0  0  0  0  0  0
    0.9413   -1.3053    0.0000 N   0  0  0  0  0  0  0  0  0  0  0  0
   -3.6208   -1.6880    0.0000 C   0  0  0  0  0  0  0  0  0  0  0  0
    1.5060   -1.8888    0.0000 C   0  0  0  0  0  0  0  0  0  0  0  0
    1.1609   -0.5083    0.0000 C   0  0  0  0  0  0  0  0  0  0  0  0
  1  2  1  0  0  0  0
  2  3  2  0  0  0  0
  2  4  1  0  0  0  0
  3  5  1  0  0  0  0
  6  3  1  1  0  0  0
  4  7  2  0  0  0  0
  5  8  2  0  0  0  0
  6  9  1  0  0  0  0
  6 10  1  0  0  0  0
  6 11  1  0  0  0  0
 10 12  2  0  0  0  0
 10 13  1  0  0  0  0
 11 14  1  0  0  0  0
 12 15  1  0  0  0  0
 13 16  2  0  0  0  0
 14 17  1  0  0  0  0
 15 18  2  0  0  0  0
 17 19  1  0  0  0  0
 17 20  1  0  0  0  0
  7  8  1  0  0  0  0
 16 18  1  0  0  0  0
M  END

>  <name>
Chlophedianol

>  <ROTATABLE_BONDCOUNT>
5

>  <HBDScore>
0.8333333333333334

>  <dipole>
2.23

>  <logD>
1.97

>  <MPOScore>
4.341833333333334

>  <logDScore>
1.0

>  <MW>
289.80

>  <charge_dist(7.4)>
0.97

>  <CNS>
TRUE

>  <ArRings>
2

>  <HBD>
1

>  <BALABAN_INDEX>
2.12

>  <bpKa>
8.87

>  <TPSAScore>
0.17349999999999996

>  <MWScore>
1.0

>  <bpKaScore>
0.5650000000000004

>  <logPScore>
0.77

>  <MPO_area>
53.03

>  <TPSA>
23.47

>  <logP>
3.46

$$$$

  Mrv1722703221715202D          

 20 20  0  0  0  0            999 V2000
    0.0000    0.0000    0.0000 Cl  0  0  0  0  0  0  0  0  0  0  0  0
   -0.7316    0.3950    0.0000 C   0  0  0  0  0  0  0  0  0  0  0  0
   -1.4373   -0.0324    0.0000 Cl  0  0  0  0  0  0  0  0  0  0  0  0
   -0.7640    1.2237    0.0000 C   0  0  0  0  0  0  0  0  0  0  0  0
   -0.0712    1.6639    0.0000 O   0  0  0  0  0  0  0  0  0  0  0  0
   -1.4956    1.6186    0.0000 N   0  0  0  0  0  0  0  0  0  0  0  0
   -1.5280    2.4473    0.0000 C   0  0  1  0  0  0  0  0  0  0  0  0
   -2.2596    2.8423    0.0000 C   0  0  2  0  0  0  0  0  0  0  0  0
   -0.8352    2.8876    0.0000 C   0  0  0  0  0  0  0  0  0  0  0  0
   -2.2920    3.6710    0.0000 O   0  0  0  0  0  0  0  0  0  0  0  0
   -2.9653    2.4150    0.0000 C   0  0  0  0  0  0  0  0  0  0  0  0
   -0.1165    2.5056    0.0000 O   0  0  0  0  0  0  0  0  0  0  0  0
   -2.9459    1.5992    0.0000 C   0  0  0  0  0  0  0  0  0  0  0  0
   -3.6969    2.8099    0.0000 C   0  0  0  0  0  0  0  0  0  0  0  0
   -3.6516    1.1719    0.0000 C   0  0  0  0  0  0  0  0  0  0  0  0
   -4.4027    2.3826    0.0000 C   0  0  0  0  0  0  0  0  0  0  0  0
   -4.3832    1.5668    0.0000 C   0  0  0  0  0  0  0  0  0  0  0  0
   -5.0889    1.1395    0.0000 N   0  3  0  0  0  0  0  0  0  0  0  0
   -5.0695    0.3237    0.0000 O   0  0  0  0  0  0  0  0  0  0  0  0
   -5.8206    1.5344    0.0000 O   0  5  0  0  0  0  0  0  0  0  0  0
  1  2  1  0  0  0  0
  2  3  1  0  0  0  0
  2  4  1  0  0  0  0
  4  5  2  0  0  0  0
  4  6  1  0  0  0  0
  7  6  1  1  0  0  0
  7  8  1  0  0  0  0
  7  9  1  0  0  0  0
  8 10  1  1  0  0  0
  8 11  1  0  0  0  0
  9 12  1  0  0  0  0
 11 13  2  0  0  0  0
 11 14  1  0  0  0  0
 13 15  1  0  0  0  0
 14 16  2  0  0  0  0
 15 17  2  0  0  0  0
 17 18  1  0  0  0  0
 18 19  2  0  0  0  0
 18 20  1  0  0  0  0
 16 17  1  0  0  0  0
M  CHG  2  18   1  20  -1
M  END

>  <name>
Chloramphenicol

>  <ROTATABLE_BONDCOUNT>
6

>  <HBDScore>
0.16666666666666674

>  <dipole>
7.36

>  <logD>
0.86

>  <MPOScore>
4.41

>  <logDScore>
1.0

>  <MW>
323.13

>  <charge_dist(7.4)>
-0.05

>  <CNS>
TRUE

>  <ArRings>
1

>  <HBD>
3

>  <BALABAN_INDEX>
2.49

>  <bpKa>
-2.79

>  <TPSAScore>
0.2433333333333333

>  <MWScore>
1.0

>  <bpKaScore>
1.0

>  <logPScore>
1.0

>  <MPO_area>
57.51

>  <TPSA>
112.70

>  <logP>
0.88

$$$$

  Mrv1722703221715202D          

 21 23  0  0  0  0            999 V2000
    0.0000    0.0000    0.0000 Cl  0  0  0  0  0  0  0  0  0  0  0  0
    0.5940    0.5682    0.0000 C   0  0  0  0  0  0  0  0  0  0  0  0
    0.4003    1.3752    0.0000 C   0  0  0  0  0  0  0  0  0  0  0  0
    1.3752    0.3357    0.0000 C   0  0  0  0  0  0  0  0  0  0  0  0
    0.9943    1.9433    0.0000 C   0  0  0  0  0  0  0  0  0  0  0  0
    1.9692    0.9039    0.0000 C   0  0  0  0  0  0  0  0  0  0  0  0
    0.6844    2.7117    0.0000 C   0  0  0  0  0  0  0  0  0  0  0  0
    1.7755    1.7109    0.0000 C   0  0  0  0  0  0  0  0  0  0  0  0
    1.0846    3.4283    0.0000 N   0  3  0  0  0  0  0  0  0  0  0  0
   -0.1420    2.7762    0.0000 C   0  0  0  0  0  0  0  0  0  0  0  0
    2.4470    2.1822    0.0000 N   0  0  0  0  0  0  0  0  0  0  0  0
    0.6134    4.1127    0.0000 O   0  5  0  0  0  0  0  0  0  0  0  0
    1.8917    3.5574    0.0000 C   0  0  0  0  0  0  0  0  0  0  0  0
   -0.5100    3.5251    0.0000 C   0  0  0  0  0  0  0  0  0  0  0  0
   -0.6069    2.1047    0.0000 C   0  0  0  0  0  0  0  0  0  0  0  0
    2.4986    3.0087    0.0000 C   0  0  0  0  0  0  0  0  0  0  0  0
   -1.3365    3.5897    0.0000 C   0  0  0  0  0  0  0  0  0  0  0  0
   -1.4333    2.1693    0.0000 C   0  0  0  0  0  0  0  0  0  0  0  0
    3.2540    3.3186    0.0000 N   0  0  0  0  0  0  0  0  0  0  0  0
   -1.8013    2.9182    0.0000 C   0  0  0  0  0  0  0  0  0  0  0  0
    3.8932    2.8149    0.0000 C   0  0  0  0  0  0  0  0  0  0  0  0
  1  2  1  0  0  0  0
  2  3  2  0  0  0  0
  2  4  1  0  0  0  0
  3  5  1  0  0  0  0
  4  6  2  0  0  0  0
  5  7  1  0  0  0  0
  5  8  2  0  0  0  0
  7  9  2  0  0  0  0
  7 10  1  0  0  0  0
  8 11  1  0  0  0  0
  9 12  1  0  0  0  0
  9 13  1  0  0  0  0
 10 14  2  0  0  0  0
 10 15  1  0  0  0  0
 11 16  2  0  0  0  0
 14 17  1  0  0  0  0
 15 18  2  0  0  0  0
 16 19  1  0  0  0  0
 17 20  2  0  0  0  0
 19 21  1  0  0  0  0
  6  8  1  0  0  0  0
 13 16  1  0  0  0  0
 18 20  1  0  0  0  0
M  CHG  2   9   1  12  -1
M  END

>  <name>
Chlordiazepoxide

>  <ROTATABLE_BONDCOUNT>
1

>  <HBDScore>
0.8333333333333334

>  <dipole>
6.39

>  <logD>
1.81

>  <MPOScore>
5.833333333333333

>  <logDScore>
1.0

>  <MW>
299.76

>  <charge_dist(7.4)>
0.31

>  <CNS>
TRUE

>  <ArRings>
2

>  <HBD>
1

>  <BALABAN_INDEX>
1.58

>  <bpKa>
7.06

>  <TPSAScore>
1.0

>  <MWScore>
1.0

>  <bpKaScore>
1.0

>  <logPScore>
1.0

>  <MPO_area>
94.44

>  <TPSA>
50.46

>  <logP>
0.19

$$$$

  Mrv1722703221715202D          

 17 18  0  0  0  0            999 V2000
    0.0000    0.0000    0.0000 Cl  0  0  0  0  0  0  0  0  0  0  0  0
   -0.8230   -0.0578    0.0000 C   0  0  0  0  0  0  0  0  0  0  0  0
   -1.1830   -0.7908    0.0000 C   0  0  0  0  0  0  0  0  0  0  0  0
   -1.2923    0.6237    0.0000 C   0  0  0  0  0  0  0  0  0  0  0  0
   -2.0060   -0.8487    0.0000 C   0  0  0  0  0  0  0  0  0  0  0  0
   -2.1153    0.5658    0.0000 C   0  0  0  0  0  0  0  0  0  0  0  0
   -2.4753   -0.1672    0.0000 C   0  0  0  0  0  0  0  0  0  0  0  0
   -3.2983   -0.2250    0.0000 C   0  0  2  0  0  0  0  0  0  0  0  0
   -3.6583   -0.9580    0.0000 S   0  0  0  0  0  0  0  0  0  0  0  0
   -3.7676    0.4565    0.0000 N   0  0  0  0  0  0  0  0  0  0  0  0
   -2.8740   -1.1701    0.0000 O   0  0  0  0  0  0  0  0  0  0  0  0
   -3.7419   -1.7681    0.0000 O   0  0  0  0  0  0  0  0  0  0  0  0
   -4.4813   -1.0159    0.0000 C   0  0  0  0  0  0  0  0  0  0  0  0
   -4.5906    0.3986    0.0000 C   0  0  0  0  0  0  0  0  0  0  0  0
   -3.4205    1.2023    0.0000 C   0  0  0  0  0  0  0  0  0  0  0  0
   -4.9506   -0.3343    0.0000 C   0  0  0  0  0  0  0  0  0  0  0  0
   -5.0600    1.0802    0.0000 O   0  0  0  0  0  0  0  0  0  0  0  0
  1  2  1  0  0  0  0
  2  3  2  0  0  0  0
  2  4  1  0  0  0  0
  3  5  1  0  0  0  0
  4  6  2  0  0  0  0
  5  7  2  0  0  0  0
  8  7  1  6  0  0  0
  8  9  1  0  0  0  0
  8 10  1  0  0  0  0
  9 11  2  0  0  0  0
  9 12  2  0  0  0  0
  9 13  1  0  0  0  0
 10 14  1  0  0  0  0
 10 15  1  0  0  0  0
 13 16  1  0  0  0  0
 14 17  2  0  0  0  0
  6  7  1  0  0  0  0
 14 16  1  0  0  0  0
M  END

>  <name>
Chlormezanone

>  <ROTATABLE_BONDCOUNT>
1

>  <HBDScore>
1.0

>  <dipole>
3.04

>  <logD>
0.92

>  <MPOScore>
6.0

>  <logDScore>
1.0

>  <MW>
273.73

>  <charge_dist(7.4)>
0.00

>  <CNS>
TRUE

>  <ArRings>
1

>  <HBD>
0

>  <BALABAN_INDEX>
2.09

>  <bpKa>
-2.44

>  <TPSAScore>
1.0

>  <MWScore>
1.0

>  <bpKaScore>
1.0

>  <logPScore>
1.0

>  <MPO_area>
100.0

>  <TPSA>
54.45

>  <logP>
0.92

$$$$

  Mrv1722703221715202D          

 12 12  0  0  0  0            999 V2000
    0.0000    0.0000    0.0000 Cl  0  0  0  0  0  0  0  0  0  0  0  0
    0.7939    0.2268    0.0000 C   0  0  0  0  0  0  0  0  0  0  0  0
    0.9956    1.0334    0.0000 C   0  0  0  0  0  0  0  0  0  0  0  0
    1.3736   -0.3466    0.0000 C   0  0  0  0  0  0  0  0  0  0  0  0
    1.7895    1.2602    0.0000 C   0  0  0  0  0  0  0  0  0  0  0  0
    2.1675   -0.1197    0.0000 C   0  0  0  0  0  0  0  0  0  0  0  0
    2.3692    0.6868    0.0000 C   0  0  0  0  0  0  0  0  0  0  0  0
    3.1631    0.9137    0.0000 C   0  0  0  0  0  0  0  0  0  0  0  0
    3.7428    0.3403    0.0000 C   0  0  0  0  0  0  0  0  0  0  0  0
    4.3225   -0.2331    0.0000 N   0  0  0  0  0  0  0  0  0  0  0  0
    3.1568   -0.2394    0.0000 C   0  0  0  0  0  0  0  0  0  0  0  0
    4.3162    0.9325    0.0000 C   0  0  0  0  0  0  0  0  0  0  0  0
  1  2  1  0  0  0  0
  2  3  2  0  0  0  0
  2  4  1  0  0  0  0
  3  5  1  0  0  0  0
  4  6  2  0  0  0  0
  5  7  2  0  0  0  0
  7  8  1  0  0  0  0
  8  9  1  0  0  0  0
  9 10  1  0  0  0  0
  9 11  1  0  0  0  0
  9 12  1  0  0  0  0
  6  7  1  0  0  0  0
M  END

>  <name>
Chlorphentermine

>  <ROTATABLE_BONDCOUNT>
2

>  <HBDScore>
0.8333333333333334

>  <dipole>
2.04

>  <logD>
0.07

>  <MPOScore>
4.134333333333333

>  <logDScore>
1.0

>  <MW>
183.68

>  <charge_dist(7.4)>
1.00

>  <CNS>
TRUE

>  <ArRings>
1

>  <HBD>
1

>  <BALABAN_INDEX>
2.26

>  <bpKa>
10.24

>  <TPSAScore>
0.301

>  <MWScore>
1.0

>  <bpKaScore>
0.0

>  <logPScore>
1.0

>  <MPO_area>
51.4

>  <TPSA>
26.02

>  <logP>
2.69

$$$$

  Mrv1722703221715202D          

 21 23  0  0  0  0            999 V2000
    0.0000    0.0000    0.0000 Cl  0  0  0  0  0  0  0  0  0  0  0  0
    0.7965   -0.2149    0.0000 C   0  0  0  0  0  0  0  0  0  0  0  0
    0.9988   -1.0114    0.0000 C   0  0  0  0  0  0  0  0  0  0  0  0
    1.3781    0.3730    0.0000 C   0  0  0  0  0  0  0  0  0  0  0  0
    1.7953   -1.2264    0.0000 C   0  0  0  0  0  0  0  0  0  0  0  0
    2.1746    0.1581    0.0000 C   0  0  0  0  0  0  0  0  0  0  0  0
    1.9976   -2.0229    0.0000 N   0  0  0  0  0  0  0  0  0  0  0  0
    2.3769   -0.6385    0.0000 C   0  0  0  0  0  0  0  0  0  0  0  0
    2.7941   -2.2378    0.0000 C   0  0  0  0  0  0  0  0  0  0  0  0
    1.4034   -2.5981    0.0000 C   0  0  0  0  0  0  0  0  0  0  0  0
    3.1734   -0.8534    0.0000 S   0  0  0  0  0  0  0  0  0  0  0  0
    3.3757   -1.6499    0.0000 C   0  0  0  0  0  0  0  0  0  0  0  0
    2.9964   -3.0343    0.0000 C   0  0  0  0  0  0  0  0  0  0  0  0
    0.5942   -2.3706    0.0000 C   0  0  0  0  0  0  0  0  0  0  0  0
    4.1722   -1.8648    0.0000 C   0  0  0  0  0  0  0  0  0  0  0  0
    3.7929   -3.2493    0.0000 C   0  0  0  0  0  0  0  0  0  0  0  0
    0.0000   -2.9458    0.0000 C   0  0  0  0  0  0  0  0  0  0  0  0
    4.3745   -2.6613    0.0000 C   0  0  0  0  0  0  0  0  0  0  0  0
   -0.8091   -2.7183    0.0000 N   0  0  0  0  0  0  0  0  0  0  0  0
   -1.4034   -3.2935    0.0000 C   0  0  0  0  0  0  0  0  0  0  0  0
   -1.0241   -1.9091    0.0000 C   0  0  0  0  0  0  0  0  0  0  0  0
  1  2  1  0  0  0  0
  2  3  2  0  0  0  0
  2  4  1  0  0  0  0
  3  5  1  0  0  0  0
  4  6  2  0  0  0  0
  5  7  1  0  0  0  0
  5  8  2  0  0  0  0
  7  9  1  0  0  0  0
  7 10  1  0  0  0  0
  8 11  1  0  0  0  0
  9 12  2  0  0  0  0
  9 13  1  0  0  0  0
 10 14  1  0  0  0  0
 12 15  1  0  0  0  0
 13 16  2  0  0  0  0
 14 17  1  0  0  0  0
 15 18  2  0  0  0  0
 17 19  1  0  0  0  0
 19 20  1  0  0  0  0
 19 21  1  0  0  0  0
  6  8  1  0  0  0  0
 11 12  1  0  0  0  0
 16 18  1  0  0  0  0
M  END

>  <name>
Chlorpromazine

>  <ROTATABLE_BONDCOUNT>
4

>  <HBDScore>
1.0

>  <dipole>
2.47

>  <logD>
2.74

>  <MPOScore>
3.2600000000000002

>  <logDScore>
0.6299999999999999

>  <MW>
318.86

>  <charge_dist(7.4)>
0.98

>  <CNS>
TRUE

>  <ArRings>
2

>  <HBD>
0

>  <BALABAN_INDEX>
1.47

>  <bpKa>
9.2

>  <TPSAScore>
0.0

>  <MWScore>
1.0

>  <bpKaScore>
0.40000000000000036

>  <logPScore>
0.22999999999999998

>  <MPO_area>
32.9

>  <TPSA>
6.48

>  <logP>
4.54

$$$$

  Mrv1722703221715202D          

 21 23  0  0  0  0            999 V2000
    0.0000    0.0000    0.0000 Cl  0  0  0  0  0  0  0  0  0  0  0  0
    0.7933    0.2266    0.0000 C   0  0  0  0  0  0  0  0  0  0  0  0
    0.9947    1.0325    0.0000 C   0  0  0  0  0  0  0  0  0  0  0  0
    1.3724   -0.3463    0.0000 C   0  0  0  0  0  0  0  0  0  0  0  0
    1.7879    1.2591    0.0000 C   0  0  0  0  0  0  0  0  0  0  0  0
    2.1656   -0.1196    0.0000 C   0  0  0  0  0  0  0  0  0  0  0  0
    2.3671    0.6862    0.0000 C   0  0  0  0  0  0  0  0  0  0  0  0
    1.9894    2.0649    0.0000 C   0  0  0  0  0  0  0  0  0  0  0  0
    3.1603    0.9128    0.0000 S   0  0  0  0  0  0  0  0  0  0  0  0
    2.7826    2.2916    0.0000 C   0  0  0  0  0  0  0  0  0  0  0  0
    1.3976    2.6504    0.0000 C   0  0  0  0  0  0  0  0  0  0  0  0
    3.3618    1.7186    0.0000 C   0  0  0  0  0  0  0  0  0  0  0  0
    2.9841    3.0974    0.0000 C   0  0  0  0  0  0  0  0  0  0  0  0
    0.5918    2.4364    0.0000 C   0  0  0  0  0  0  0  0  0  0  0  0
    4.1550    1.9453    0.0000 C   0  0  0  0  0  0  0  0  0  0  0  0
    3.7773    3.3240    0.0000 C   0  0  0  0  0  0  0  0  0  0  0  0
    0.0000    3.0219    0.0000 C   0  0  0  0  0  0  0  0  0  0  0  0
    4.3565    2.7511    0.0000 C   0  0  0  0  0  0  0  0  0  0  0  0
   -0.8058    2.8078    0.0000 N   0  0  0  0  0  0  0  0  0  0  0  0
   -1.3976    3.3933    0.0000 C   0  0  0  0  0  0  0  0  0  0  0  0
   -1.0199    2.0146    0.0000 C   0  0  0  0  0  0  0  0  0  0  0  0
  1  2  1  0  0  0  0
  2  3  2  0  0  0  0
  2  4  1  0  0  0  0
  3  5  1  0  0  0  0
  4  6  2  0  0  0  0
  5  7  2  0  0  0  0
  5  8  1  0  0  0  0
  7  9  1  0  0  0  0
  8 10  1  0  0  0  0
  8 11  2  0  0  0  0
  9 12  1  0  0  0  0
 10 13  2  0  0  0  0
 11 14  1  0  0  0  0
 12 15  2  0  0  0  0
 13 16  1  0  0  0  0
 14 17  1  0  0  0  0
 15 18  1  0  0  0  0
 17 19  1  0  0  0  0
 19 20  1  0  0  0  0
 19 21  1  0  0  0  0
  6  7  1  0  0  0  0
 10 12  1  0  0  0  0
 16 18  2  0  0  0  0
M  END

>  <name>
Chlorprothixene

>  <ROTATABLE_BONDCOUNT>
3

>  <HBDScore>
1.0

>  <dipole>
4.56

>  <logD>
2.73

>  <MPOScore>
2.755

>  <logDScore>
0.635

>  <MW>
315.86

>  <charge_dist(7.4)>
1.00

>  <CNS>
TRUE

>  <ArRings>
2

>  <HBD>
0

>  <BALABAN_INDEX>
1.47

>  <bpKa>
9.76

>  <TPSAScore>
0.0

>  <MWScore>
1.0

>  <bpKaScore>
0.1200000000000001

>  <logPScore>
0.0

>  <MPO_area>
28.52

>  <TPSA>
3.24

>  <logP>
5.07

$$$$

  Mrv1722703221715202D          

 11 12  0  0  0  0            999 V2000
    0.0000    0.0000    0.0000 Cl  0  0  0  0  0  0  0  0  0  0  0  0
   -0.7604    0.3259    0.0000 C   0  0  0  0  0  0  0  0  0  0  0  0
   -1.4185   -0.1597    0.0000 C   0  0  0  0  0  0  0  0  0  0  0  0
   -0.8690    1.1437    0.0000 C   0  0  0  0  0  0  0  0  0  0  0  0
   -2.1788    0.1661    0.0000 C   0  0  0  0  0  0  0  0  0  0  0  0
   -1.6293    1.4696    0.0000 C   0  0  0  0  0  0  0  0  0  0  0  0
   -2.9264   -0.1725    0.0000 N   0  0  0  0  0  0  0  0  0  0  0  0
   -2.2874    0.9840    0.0000 C   0  0  0  0  0  0  0  0  0  0  0  0
   -3.4887    0.4281    0.0000 C   0  0  0  0  0  0  0  0  0  0  0  0
   -3.0989    1.1437    0.0000 O   0  0  0  0  0  0  0  0  0  0  0  0
   -4.3066    0.3322    0.0000 O   0  0  0  0  0  0  0  0  0  0  0  0
  1  2  1  0  0  0  0
  2  3  2  0  0  0  0
  2  4  1  0  0  0  0
  3  5  1  0  0  0  0
  4  6  2  0  0  0  0
  5  7  1  0  0  0  0
  5  8  2  0  0  0  0
  7  9  1  0  0  0  0
  8 10  1  0  0  0  0
  9 11  2  0  0  0  0
  6  8  1  0  0  0  0
  9 10  1  0  0  0  0
M  END

>  <name>
Chlorzoxazone

>  <ROTATABLE_BONDCOUNT>
0

>  <HBDScore>
0.8333333333333334

>  <dipole>
2.71

>  <logD>
1.93

>  <MPOScore>
5.749833333333333

>  <logDScore>
1.0

>  <MW>
169.56

>  <charge_dist(7.4)>
-0.01

>  <CNS>
TRUE

>  <ArRings>
2

>  <HBD>
1

>  <BALABAN_INDEX>
1.97

>  <bpKa>
-2.17

>  <TPSAScore>
0.9165

>  <MWScore>
1.0

>  <bpKaScore>
1.0

>  <logPScore>
1.0

>  <MPO_area>
91.89

>  <TPSA>
38.33

>  <logP>
1.94

$$$$

  Mrv1722703221715202D          

 27 30  0  0  0  0            999 V2000
    0.0000    0.0000    0.0000 O   0  0  0  0  0  0  0  0  0  0  0  0
    0.7517    0.3399    0.0000 C   0  0  0  0  0  0  0  0  0  0  0  0
    0.8367    1.1700    0.0000 N   0  0  0  0  0  0  0  0  0  0  0  0
    1.4184   -0.1438    0.0000 C   0  0  0  0  0  0  0  0  0  0  0  0
    1.5884    1.5100    0.0000 C   0  0  0  0  0  0  0  0  0  0  0  0
    2.1702    0.1961    0.0000 C   0  0  0  0  0  0  0  0  0  0  0  0
    2.2551    1.0263    0.0000 C   0  0  0  0  0  0  0  0  0  0  0  0
    1.6734    2.3401    0.0000 C   0  0  0  0  0  0  0  0  0  0  0  0
    3.0069    1.3661    0.0000 C   0  0  0  0  0  0  0  0  0  0  0  0
    2.4251    2.6800    0.0000 C   0  0  0  0  0  0  0  0  0  0  0  0
    3.0918    2.1963    0.0000 C   0  0  0  0  0  0  0  0  0  0  0  0
    3.8435    2.5362    0.0000 O   0  0  0  0  0  0  0  0  0  0  0  0
    4.5103    2.0525    0.0000 C   0  0  0  0  0  0  0  0  0  0  0  0
    5.2620    2.3924    0.0000 C   0  0  0  0  0  0  0  0  0  0  0  0
    5.9287    1.9087    0.0000 C   0  0  0  0  0  0  0  0  0  0  0  0
    6.6805    2.2486    0.0000 C   0  0  0  0  0  0  0  0  0  0  0  0
    7.3472    1.7649    0.0000 C   0  0  0  0  0  0  0  0  0  0  0  0
    8.1316    2.0264    0.0000 N   0  0  0  0  0  0  0  0  0  0  0  0
    7.3406    0.9413    0.0000 N   0  0  0  0  0  0  0  0  0  0  0  0
    8.6088    1.3596    0.0000 N   0  0  0  0  0  0  0  0  0  0  0  0
    8.1251    0.6863    0.0000 N   0  0  0  0  0  0  0  0  0  0  0  0
    6.6608    0.4641    0.0000 C   0  0  0  0  0  0  0  0  0  0  0  0
    5.8961    0.8105    0.0000 C   0  0  0  0  0  0  0  0  0  0  0  0
    6.7393   -0.3530    0.0000 C   0  0  0  0  0  0  0  0  0  0  0  0
    5.2163    0.3334    0.0000 C   0  0  0  0  0  0  0  0  0  0  0  0
    6.0595   -0.8302    0.0000 C   0  0  0  0  0  0  0  0  0  0  0  0
    5.2947   -0.4837    0.0000 C   0  0  0  0  0  0  0  0  0  0  0  0
  1  2  2  0  0  0  0
  2  3  1  0  0  0  0
  2  4  1  0  0  0  0
  3  5  1  0  0  0  0
  4  6  1  0  0  0  0
  5  7  2  0  0  0  0
  5  8  1  0  0  0  0
  7  9  1  0  0  0  0
  8 10  2  0  0  0  0
  9 11  2  0  0  0  0
 11 12  1  0  0  0  0
 12 13  1  0  0  0  0
 13 14  1  0  0  0  0
 14 15  1  0  0  0  0
 15 16  1  0  0  0  0
 16 17  1  0  0  0  0
 17 18  2  0  0  0  0
 17 19  1  0  0  0  0
 18 20  1  0  0  0  0
 19 21  1  0  0  0  0
 19 22  1  0  0  0  0
 22 23  1  0  0  0  0
 22 24  1  0  0  0  0
 23 25  1  0  0  0  0
 24 26  1  0  0  0  0
 25 27  1  0  0  0  0
  6  7  1  0  0  0  0
 10 11  1  0  0  0  0
 20 21  2  0  0  0  0
 26 27  1  0  0  0  0
M  END

>  <name>
Cilostazol

>  <ROTATABLE_BONDCOUNT>
7

>  <HBDScore>
0.8333333333333334

>  <dipole>
5.22

>  <logD>
3.31

>  <MPOScore>
4.955697619047619

>  <logDScore>
0.345

>  <MW>
369.469

>  <charge_dist(7.4)>
-0.00

>  <CNS>
TRUE

>  <ArRings>
2

>  <HBD>
1

>  <BALABAN_INDEX>
1.10

>  <bpKa>
-0.67

>  <TPSAScore>
1.0

>  <MWScore>
0.9323642857142858

>  <bpKaScore>
1.0

>  <logPScore>
0.845

>  <MPO_area>
67.61

>  <TPSA>
81.93

>  <logP>
3.31

$$$$

  Mrv1722703221715202D          

 26 28  0  0  0  0            999 V2000
    0.0000    0.0000    0.0000 F   0  0  0  0  0  0  0  0  0  0  0  0
   -0.0709   -0.8124    0.0000 C   0  0  0  0  0  0  0  0  0  0  0  0
    0.7414   -0.8704    0.0000 F   0  0  0  0  0  0  0  0  0  0  0  0
   -0.8962   -0.7414    0.0000 F   0  0  0  0  0  0  0  0  0  0  0  0
   -0.1418   -1.6248    0.0000 C   0  0  0  0  0  0  0  0  0  0  0  0
   -0.8898   -1.9729    0.0000 C   0  0  0  0  0  0  0  0  0  0  0  0
    0.5287   -2.0826    0.0000 C   0  0  0  0  0  0  0  0  0  0  0  0
   -0.9607   -2.7853    0.0000 C   0  0  0  0  0  0  0  0  0  0  0  0
    0.4578   -2.8949    0.0000 C   0  0  0  0  0  0  0  0  0  0  0  0
   -0.2901   -3.2431    0.0000 C   0  0  0  0  0  0  0  0  0  0  0  0
   -1.7086   -3.1335    0.0000 C   0  0  0  0  0  0  0  0  0  0  0  0
   -2.3920   -2.6628    0.0000 C   0  0  0  0  0  0  0  0  0  0  0  0
   -3.1399   -3.0110    0.0000 C   0  0  0  0  0  0  0  0  0  0  0  0
   -3.8234   -2.5403    0.0000 N   0  0  0  0  0  0  0  0  0  0  0  0
   -4.5713   -2.8885    0.0000 C   0  0  2  0  0  0  0  0  0  0  0  0
   -5.2547   -2.4178    0.0000 C   0  0  0  0  0  0  0  0  0  0  0  0
   -4.6422   -3.7009    0.0000 C   0  0  0  0  0  0  0  0  0  0  0  0
   -5.1967   -1.5925    0.0000 C   0  0  0  0  0  0  0  0  0  0  0  0
   -6.0027   -2.7660    0.0000 C   0  0  0  0  0  0  0  0  0  0  0  0
   -5.8801   -1.1219    0.0000 C   0  0  0  0  0  0  0  0  0  0  0  0
   -4.4617   -1.2315    0.0000 C   0  0  0  0  0  0  0  0  0  0  0  0
   -6.6861   -2.2953    0.0000 C   0  0  0  0  0  0  0  0  0  0  0  0
   -6.6281   -1.4700    0.0000 C   0  0  0  0  0  0  0  0  0  0  0  0
   -5.8221   -0.2966    0.0000 C   0  0  0  0  0  0  0  0  0  0  0  0
   -4.4037   -0.4062    0.0000 C   0  0  0  0  0  0  0  0  0  0  0  0
   -5.0871    0.0645    0.0000 C   0  0  0  0  0  0  0  0  0  0  0  0
  1  2  1  0  0  0  0
  2  3  1  0  0  0  0
  2  4  1  0  0  0  0
  2  5  1  0  0  0  0
  5  6  2  0  0  0  0
  5  7  1  0  0  0  0
  6  8  1  0  0  0  0
  7  9  2  0  0  0  0
  8 10  2  0  0  0  0
  8 11  1  0  0  0  0
 11 12  1  0  0  0  0
 12 13  1  0  0  0  0
 13 14  1  0  0  0  0
 15 14  1  1  0  0  0
 15 16  1  0  0  0  0
 15 17  1  0  0  0  0
 16 18  1  0  0  0  0
 16 19  2  0  0  0  0
 18 20  2  0  0  0  0
 18 21  1  0  0  0  0
 19 22  1  0  0  0  0
 20 23  1  0  0  0  0
 20 24  1  0  0  0  0
 21 25  2  0  0  0  0
 24 26  2  0  0  0  0
  9 10  1  0  0  0  0
 22 23  2  0  0  0  0
 25 26  1  0  0  0  0
M  END

>  <name>
Cinacalcet

>  <ROTATABLE_BONDCOUNT>
7

>  <HBDScore>
0.8333333333333334

>  <dipole>
2.53

>  <logD>
3.75

>  <MPOScore>
1.9583333333333335

>  <logDScore>
0.125

>  <MW>
357.420

>  <charge_dist(7.4)>
1.00

>  <CNS>
TRUE

>  <ArRings>
3

>  <HBD>
1

>  <BALABAN_INDEX>
1.36

>  <bpKa>
10.01

>  <TPSAScore>
0.0

>  <MWScore>
1.0

>  <bpKaScore>
0.0

>  <logPScore>
0.0

>  <MPO_area>
15.62

>  <TPSA>
12.03

>  <logP>
6.27

$$$$

  Mrv1722703221715202D          

 24 26  0  0  0  0            999 V2000
    0.0000    0.0000    0.0000 F   0  0  0  0  0  0  0  0  0  0  0  0
    0.8074    0.1693    0.0000 C   0  0  0  0  0  0  0  0  0  0  0  0
    1.0679    0.9637    0.0000 C   0  0  0  0  0  0  0  0  0  0  0  0
    1.3479   -0.4493    0.0000 C   0  0  0  0  0  0  0  0  0  0  0  0
    1.8753    1.1330    0.0000 C   0  0  0  0  0  0  0  0  0  0  0  0
    2.1553   -0.2800    0.0000 C   0  0  0  0  0  0  0  0  0  0  0  0
    2.4158    0.5144    0.0000 C   0  0  0  0  0  0  0  0  0  0  0  0
    3.2232    0.6837    0.0000 C   0  0  1  0  0  0  0  0  0  0  0  0
    3.2948   -0.1367    0.0000 O   0  0  0  0  0  0  0  0  0  0  0  0
    3.9785    1.0223    0.0000 C   0  0  0  0  0  0  0  0  0  0  0  0
    2.9693    1.4846    0.0000 C   0  0  0  0  0  0  0  0  0  0  0  0
    4.0958   -0.3125    0.0000 C   0  0  0  0  0  0  0  0  0  0  0  0
    4.5190    0.4037    0.0000 C   0  0  0  0  0  0  0  0  0  0  0  0
    4.2390    1.8167    0.0000 C   0  0  0  0  0  0  0  0  0  0  0  0
    2.1553    1.6735    0.0000 C   0  0  0  0  0  0  0  0  0  0  0  0
    5.3264    0.5730    0.0000 C   0  0  0  0  0  0  0  0  0  0  0  0
    5.0465    1.9860    0.0000 C   0  0  0  0  0  0  0  0  0  0  0  0
    1.9014    2.4744    0.0000 C   0  0  0  0  0  0  0  0  0  0  0  0
    5.5869    1.3674    0.0000 C   0  0  0  0  0  0  0  0  0  0  0  0
    1.0874    2.6632    0.0000 N   0  0  0  0  0  0  0  0  0  0  0  0
    6.3943    1.5367    0.0000 C   0  0  0  0  0  0  0  0  0  0  0  0
    0.8335    3.4641    0.0000 C   0  0  0  0  0  0  0  0  0  0  0  0
    0.5209    2.0576    0.0000 C   0  0  0  0  0  0  0  0  0  0  0  0
    7.2017    1.7060    0.0000 N   0  0  0  0  0  0  0  0  0  0  0  0
  1  2  1  0  0  0  0
  2  3  2  0  0  0  0
  2  4  1  0  0  0  0
  3  5  1  0  0  0  0
  4  6  2  0  0  0  0
  5  7  2  0  0  0  0
  7  8  1  0  0  0  0
  8  9  1  0  0  0  0
  8 10  1  0  0  0  0
  8 11  1  1  0  0  0
  9 12  1  0  0  0  0
 10 13  2  0  0  0  0
 10 14  1  0  0  0  0
 11 15  1  0  0  0  0
 13 16  1  0  0  0  0
 14 17  2  0  0  0  0
 15 18  1  0  0  0  0
 16 19  2  0  0  0  0
 18 20  1  0  0  0  0
 19 21  1  0  0  0  0
 20 22  1  0  0  0  0
 20 23  1  0  0  0  0
 21 24  3  0  0  0  0
  6  7  1  0  0  0  0
 12 13  1  0  0  0  0
 17 19  1  0  0  0  0
M  END

>  <name>
Citalopram

>  <ROTATABLE_BONDCOUNT>
5

>  <HBDScore>
1.0

>  <dipole>
6.50

>  <logD>
1.41

>  <MPOScore>
4.543

>  <logDScore>
1.0

>  <MW>
324.399

>  <charge_dist(7.4)>
1.00

>  <CNS>
TRUE

>  <ArRings>
2

>  <HBD>
0

>  <BALABAN_INDEX>
1.59

>  <bpKa>
9.78

>  <TPSAScore>
0.813

>  <MWScore>
1.0

>  <bpKaScore>
0.11000000000000032

>  <logPScore>
0.6200000000000001

>  <MPO_area>
58.25

>  <TPSA>
36.26

>  <logP>
3.76

$$$$

  Mrv1722703221715202D          

 24 26  0  0  0  0            999 V2000
    0.0000    0.0000    0.0000 Cl  0  0  0  0  0  0  0  0  0  0  0  0
   -0.6981    0.4525    0.0000 C   0  0  0  0  0  0  0  0  0  0  0  0
   -1.4350    0.0840    0.0000 C   0  0  0  0  0  0  0  0  0  0  0  0
   -0.6658    1.2798    0.0000 C   0  0  0  0  0  0  0  0  0  0  0  0
   -2.1331    0.5365    0.0000 C   0  0  0  0  0  0  0  0  0  0  0  0
   -1.3639    1.7323    0.0000 C   0  0  0  0  0  0  0  0  0  0  0  0
   -2.1008    1.3639    0.0000 C   0  0  0  0  0  0  0  0  0  0  0  0
   -2.7989    1.8164    0.0000 C   0  0  1  0  0  0  0  0  0  0  0  0
   -3.4970    2.2689    0.0000 O   0  0  0  0  0  0  0  0  0  0  0  0
   -2.3593    2.5145    0.0000 C   0  0  0  0  0  0  0  0  0  0  0  0
   -3.2514    1.1312    0.0000 C   0  0  0  0  0  0  0  0  0  0  0  0
   -4.2339    1.9004    0.0000 C   0  0  0  0  0  0  0  0  0  0  0  0
   -1.5449    2.4822    0.0000 C   0  0  0  0  0  0  0  0  0  0  0  0
   -2.7407    3.2514    0.0000 C   0  0  0  0  0  0  0  0  0  0  0  0
   -4.9320    2.3529    0.0000 C   0  0  0  0  0  0  0  0  0  0  0  0
   -1.1054    3.1803    0.0000 C   0  0  0  0  0  0  0  0  0  0  0  0
   -2.3012    3.9495    0.0000 C   0  0  0  0  0  0  0  0  0  0  0  0
   -5.6689    1.9844    0.0000 C   0  0  1  0  0  0  0  0  0  0  0  0
   -1.4867    3.9171    0.0000 C   0  0  0  0  0  0  0  0  0  0  0  0
   -5.7982    1.1765    0.0000 N   0  0  0  0  0  0  0  0  0  0  0  0
   -6.4122    2.3593    0.0000 C   0  0  0  0  0  0  0  0  0  0  0  0
   -6.6126    1.0471    0.0000 C   0  0  0  0  0  0  0  0  0  0  0  0
   -5.2229    0.6076    0.0000 C   0  0  0  0  0  0  0  0  0  0  0  0
   -6.9940    1.7841    0.0000 C   0  0  0  0  0  0  0  0  0  0  0  0
  1  2  1  0  0  0  0
  2  3  2  0  0  0  0
  2  4  1  0  0  0  0
  3  5  1  0  0  0  0
  4  6  2  0  0  0  0
  5  7  2  0  0  0  0
  7  8  1  0  0  0  0
  8  9  1  1  0  0  0
  8 10  1  0  0  0  0
  8 11  1  0  0  0  0
  9 12  1  0  0  0  0
 10 13  2  0  0  0  0
 10 14  1  0  0  0  0
 12 15  1  0  0  0  0
 13 16  1  0  0  0  0
 14 17  2  0  0  0  0
 18 15  1  1  0  0  0
 16 19  2  0  0  0  0
 18 20  1  0  0  0  0
 18 21  1  0  0  0  0
 20 22  1  0  0  0  0
 20 23  1  0  0  0  0
 21 24  1  0  0  0  0
  6  7  1  0  0  0  0
 17 19  1  0  0  0  0
 22 24  1  0  0  0  0
M  END

>  <name>
Clemastine

>  <ROTATABLE_BONDCOUNT>
6

>  <HBDScore>
1.0

>  <dipole>
2.23

>  <logD>
2.79

>  <MPOScore>
2.8699999999999997

>  <logDScore>
0.605

>  <MW>
343.90

>  <charge_dist(7.4)>
0.99

>  <CNS>
TRUE

>  <ArRings>
2

>  <HBD>
0

>  <BALABAN_INDEX>
1.47

>  <bpKa>
9.55

>  <TPSAScore>
0.0

>  <MWScore>
1.0

>  <bpKaScore>
0.22499999999999964

>  <logPScore>
0.040000000000000036

>  <MPO_area>
29.17

>  <TPSA>
12.47

>  <logP>
4.92

$$$$

  Mrv1722703221715202D          

 26 29  0  0  0  0            999 V2000
    0.0000    0.0000    0.0000 O   0  0  0  0  0  0  0  0  0  0  0  0
    0.0593    0.8299    0.0000 C   0  0  0  0  0  0  0  0  0  0  0  0
    0.7961    1.1856    0.0000 O   0  0  0  0  0  0  0  0  0  0  0  0
   -0.6267    1.3126    0.0000 C   0  0  0  0  0  0  0  0  0  0  0  0
    1.7869    0.1185    0.0000 C   0  0  2  0  0  0  0  0  0  0  0  0
   -1.3126    1.7954    0.0000 O   0  0  0  0  0  0  0  0  0  0  0  0
   -0.1609    1.9986    0.0000 C   0  0  0  0  0  0  0  0  0  0  0  0
   -1.1094    0.6436    0.0000 C   0  0  0  0  0  0  0  0  0  0  0  0
    1.3804   -0.0932    0.0000 C   0  0  0  0  0  0  0  0  0  0  0  0
    2.4559    0.4404    0.0000 C   0  0  0  0  0  0  0  0  0  0  0  0
    0.6521    1.9393    0.0000 C   0  0  0  0  0  0  0  0  0  0  0  0
   -0.5166    2.7523    0.0000 C   0  0  0  0  0  0  0  0  0  0  0  0
   -1.9393    0.7198    0.0000 C   0  0  0  0  0  0  0  0  0  0  0  0
   -0.7706   -0.0932    0.0000 C   0  0  0  0  0  0  0  0  0  0  0  0
    2.0494   -0.5589    0.0000 C   0  0  0  0  0  0  0  0  0  0  0  0
    1.4397    0.7368    0.0000 C   0  0  0  0  0  0  0  0  0  0  0  0
    2.8709    0.6182    0.0000 N   0  3  0  0  0  0  0  0  0  0  0  0
    1.1179    2.6253    0.0000 C   0  0  0  0  0  0  0  0  0  0  0  0
   -0.0508    3.4383    0.0000 C   0  0  0  0  0  0  0  0  0  0  0  0
   -2.4221    0.0508    0.0000 C   0  0  0  0  0  0  0  0  0  0  0  0
   -1.2534   -0.7622    0.0000 C   0  0  0  0  0  0  0  0  0  0  0  0
    2.7862   -0.2032    0.0000 C   0  0  0  0  0  0  0  0  0  0  0  0
    2.1765    1.0925    0.0000 C   0  0  0  0  0  0  0  0  0  0  0  0
    3.6076    0.9739    0.0000 C   0  0  0  0  0  0  0  0  0  0  0  0
    0.7622    3.3790    0.0000 C   0  0  0  0  0  0  0  0  0  0  0  0
   -2.0833   -0.6860    0.0000 C   0  0  0  0  0  0  0  0  0  0  0  0
  1  2  2  0  0  0  0
  2  3  1  0  0  0  0
  2  4  1  0  0  0  0
  3  5  1  0  0  0  0
  4  6  1  0  0  0  0
  4  7  1  0  0  0  0
  4  8  1  0  0  0  0
  5  9  1  1  0  0  0
  5 10  1  0  0  0  0
  7 11  2  0  0  0  0
  7 12  1  0  0  0  0
  8 13  2  0  0  0  0
  8 14  1  0  0  0  0
  9 15  1  0  0  0  0
  9 16  1  0  0  0  0
 10 17  1  0  0  0  0
 11 18  1  0  0  0  0
 12 19  2  0  0  0  0
 13 20  1  0  0  0  0
 14 21  2  0  0  0  0
 15 22  1  0  0  0  0
 16 23  1  0  0  0  0
 17 24  1  0  0  0  0
 18 25  2  0  0  0  0
 20 26  2  0  0  0  0
 17 22  1  0  0  0  0
 17 23  1  0  0  0  0
 19 25  1  0  0  0  0
 21 26  1  0  0  0  0
M  CHG  1  17   1
M  END

>  <name>
Clidinium

>  <ROTATABLE_BONDCOUNT>
5

>  <HBDScore>
0.8333333333333334

>  <dipole>
20.62

>  <logD>
-1.08

>  <MPOScore>
5.833333333333333

>  <logDScore>
1.0

>  <MW>
352.453

>  <charge_dist(7.4)>
-0.00

>  <CNS>
TRUE

>  <ArRings>
2

>  <HBD>
1

>  <BALABAN_INDEX>
1.30

>  <bpKa>
-4.53

>  <TPSAScore>
1.0

>  <MWScore>
1.0

>  <bpKaScore>
1.0

>  <logPScore>
1.0

>  <MPO_area>
94.44

>  <TPSA>
46.53

>  <logP>
-1.08

$$$$

  Mrv1722703221715202D          

 21 23  0  0  0  0            999 V2000
    0.0000    0.0000    0.0000 Cl  0  0  0  0  0  0  0  0  0  0  0  0
    0.4968    0.6581    0.0000 C   0  0  0  0  0  0  0  0  0  0  0  0
    0.1742    1.4259    0.0000 C   0  0  0  0  0  0  0  0  0  0  0  0
    1.3033    0.5549    0.0000 C   0  0  0  0  0  0  0  0  0  0  0  0
    0.6710    2.0841    0.0000 C   0  0  0  0  0  0  0  0  0  0  0  0
    1.8001    1.2130    0.0000 C   0  0  0  0  0  0  0  0  0  0  0  0
    0.2387    2.7938    0.0000 N   0  0  0  0  0  0  0  0  0  0  0  0
    1.4775    1.9808    0.0000 C   0  0  0  0  0  0  0  0  0  0  0  0
    0.5162    3.5745    0.0000 C   0  0  0  0  0  0  0  0  0  0  0  0
   -0.5872    2.7228    0.0000 C   0  0  0  0  0  0  0  0  0  0  0  0
    2.0647    2.5615    0.0000 N   0  0  0  0  0  0  0  0  0  0  0  0
   -0.0645    4.1745    0.0000 O   0  0  0  0  0  0  0  0  0  0  0  0
    1.2904    3.8390    0.0000 C   0  0  0  0  0  0  0  0  0  0  0  0
   -1.0710    3.4003    0.0000 C   0  0  0  0  0  0  0  0  0  0  0  0
   -0.9355    1.9808    0.0000 C   0  0  0  0  0  0  0  0  0  0  0  0
    1.9808    3.3874    0.0000 C   0  0  0  0  0  0  0  0  0  0  0  0
    2.8325    2.2841    0.0000 C   0  0  0  0  0  0  0  0  0  0  0  0
   -1.8969    3.3293    0.0000 C   0  0  0  0  0  0  0  0  0  0  0  0
   -1.7614    1.9098    0.0000 C   0  0  0  0  0  0  0  0  0  0  0  0
    2.6776    3.8196    0.0000 O   0  0  0  0  0  0  0  0  0  0  0  0
   -2.2454    2.5873    0.0000 C   0  0  0  0  0  0  0  0  0  0  0  0
  1  2  1  0  0  0  0
  2  3  2  0  0  0  0
  2  4  1  0  0  0  0
  3  5  1  0  0  0  0
  4  6  2  0  0  0  0
  5  7  1  0  0  0  0
  5  8  2  0  0  0  0
  7  9  1  0  0  0  0
  7 10  1  0  0  0  0
  8 11  1  0  0  0  0
  9 12  2  0  0  0  0
  9 13  1  0  0  0  0
 10 14  2  0  0  0  0
 10 15  1  0  0  0  0
 11 16  1  0  0  0  0
 11 17  1  0  0  0  0
 14 18  1  0  0  0  0
 15 19  2  0  0  0  0
 16 20  2  0  0  0  0
 18 21  2  0  0  0  0
  6  8  1  0  0  0  0
 13 16  1  0  0  0  0
 19 21  1  0  0  0  0
M  END

>  <name>
Clobazam

>  <ROTATABLE_BONDCOUNT>
1

>  <HBDScore>
1.0

>  <dipole>
2.74

>  <logD>
0.97

>  <MPOScore>
6.0

>  <logDScore>
1.0

>  <MW>
300.74

>  <charge_dist(7.4)>
-0.97

>  <CNS>
TRUE

>  <ArRings>
2

>  <HBD>
0

>  <BALABAN_INDEX>
1.62

>  <bpKa>
-6.72

>  <TPSAScore>
1.0

>  <MWScore>
1.0

>  <bpKaScore>
1.0

>  <logPScore>
1.0

>  <MPO_area>
100.0

>  <TPSA>
40.62

>  <logP>
2.55

$$$$

  Mrv1722703221715202D          

 22 24  0  0  0  0            999 V2000
    0.0000    0.0000    0.0000 Cl  0  0  0  0  0  0  0  0  0  0  0  0
    0.1177   -0.8175    0.0000 C   0  0  0  0  0  0  0  0  0  0  0  0
    0.8829   -1.1118    0.0000 C   0  0  0  0  0  0  0  0  0  0  0  0
   -0.5363   -1.3341    0.0000 C   0  0  0  0  0  0  0  0  0  0  0  0
    1.0006   -1.9227    0.0000 C   0  0  0  0  0  0  0  0  0  0  0  0
   -0.4185   -2.1450    0.0000 C   0  0  0  0  0  0  0  0  0  0  0  0
    1.8050   -2.0992    0.0000 N   0  0  0  0  0  0  0  0  0  0  0  0
    0.3466   -2.4393    0.0000 C   0  0  0  0  0  0  0  0  0  0  0  0
    2.1646   -2.8382    0.0000 C   0  0  0  0  0  0  0  0  0  0  0  0
    2.3151   -1.4388    0.0000 C   0  0  0  0  0  0  0  0  0  0  0  0
    0.3466   -3.2634    0.0000 C   0  0  0  0  0  0  0  0  0  0  0  0
    1.7984   -3.5838    0.0000 C   0  0  0  0  0  0  0  0  0  0  0  0
    2.9887   -2.7663    0.0000 C   0  0  0  0  0  0  0  0  0  0  0  0
    3.1325   -1.5499    0.0000 C   0  0  0  0  0  0  0  0  0  0  0  0
    0.9940   -3.7734    0.0000 C   0  0  0  0  0  0  0  0  0  0  0  0
    2.2627   -4.2639    0.0000 C   0  0  0  0  0  0  0  0  0  0  0  0
    3.4530   -3.4464    0.0000 C   0  0  0  0  0  0  0  0  0  0  0  0
    3.6427   -0.8894    0.0000 C   0  0  0  0  0  0  0  0  0  0  0  0
    3.0868   -4.1920    0.0000 C   0  0  0  0  0  0  0  0  0  0  0  0
    4.4601   -1.0006    0.0000 N   0  0  0  0  0  0  0  0  0  0  0  0
    4.9702   -0.3401    0.0000 C   0  0  0  0  0  0  0  0  0  0  0  0
    4.7609   -1.7657    0.0000 C   0  0  0  0  0  0  0  0  0  0  0  0
  1  2  1  0  0  0  0
  2  3  2  0  0  0  0
  2  4  1  0  0  0  0
  3  5  1  0  0  0  0
  4  6  2  0  0  0  0
  5  7  1  0  0  0  0
  5  8  2  0  0  0  0
  7  9  1  0  0  0  0
  7 10  1  0  0  0  0
  8 11  1  0  0  0  0
  9 12  2  0  0  0  0
  9 13  1  0  0  0  0
 10 14  1  0  0  0  0
 11 15  1  0  0  0  0
 12 16  1  0  0  0  0
 13 17  2  0  0  0  0
 14 18  1  0  0  0  0
 16 19  2  0  0  0  0
 18 20  1  0  0  0  0
 20 21  1  0  0  0  0
 20 22  1  0  0  0  0
  6  8  1  0  0  0  0
 12 15  1  0  0  0  0
 17 19  1  0  0  0  0
M  END

>  <name>
Clomipramine

>  <ROTATABLE_BONDCOUNT>
4

>  <HBDScore>
1.0

>  <dipole>
4.99

>  <logD>
3.09

>  <MPOScore>
2.9150000000000005

>  <logDScore>
0.45500000000000007

>  <MW>
314.86

>  <charge_dist(7.4)>
0.98

>  <CNS>
TRUE

>  <ArRings>
2

>  <HBD>
0

>  <BALABAN_INDEX>
1.73

>  <bpKa>
9.2

>  <TPSAScore>
0.0

>  <MWScore>
1.0

>  <bpKaScore>
0.40000000000000036

>  <logPScore>
0.06000000000000005

>  <MPO_area>
27.68

>  <TPSA>
6.48

>  <logP>
4.88

$$$$

  Mrv1722703221715202D          

 22 24  0  0  0  0            999 V2000
    0.0000    0.0000    0.0000 Cl  0  0  0  0  0  0  0  0  0  0  0  0
    0.0065    0.8331    0.0000 C   0  0  0  0  0  0  0  0  0  0  0  0
    0.7224    1.2431    0.0000 C   0  0  0  0  0  0  0  0  0  0  0  0
   -0.7094    1.2626    0.0000 C   0  0  0  0  0  0  0  0  0  0  0  0
    1.4253    0.8266    0.0000 C   0  0  0  0  0  0  0  0  0  0  0  0
    0.7290    2.0762    0.0000 C   0  0  0  0  0  0  0  0  0  0  0  0
   -0.7029    2.0957    0.0000 C   0  0  0  0  0  0  0  0  0  0  0  0
    2.1087    1.2886    0.0000 N   0  0  0  0  0  0  0  0  0  0  0  0
    1.3472    0.0065    0.0000 C   0  0  0  0  0  0  0  0  0  0  0  0
    0.0130    2.5057    0.0000 C   0  0  0  0  0  0  0  0  0  0  0  0
    2.8897    1.0414    0.0000 C   0  0  0  0  0  0  0  0  0  0  0  0
    1.9395   -0.5597    0.0000 C   0  0  0  0  0  0  0  0  0  0  0  0
    0.5467   -0.2213    0.0000 C   0  0  0  0  0  0  0  0  0  0  0  0
    3.1761    0.2733    0.0000 C   0  0  0  0  0  0  0  0  0  0  0  0
    2.7531   -0.4426    0.0000 N   0  0  0  0  0  0  0  0  0  0  0  0
    1.7378   -1.3537    0.0000 C   0  0  0  0  0  0  0  0  0  0  0  0
    0.3450   -1.0153    0.0000 C   0  0  0  0  0  0  0  0  0  0  0  0
    3.9961    0.2083    0.0000 O   0  0  0  0  0  0  0  0  0  0  0  0
    0.9372   -1.5815    0.0000 C   0  0  0  0  0  0  0  0  0  0  0  0
   -0.4556   -1.2431    0.0000 N   0  3  0  0  0  0  0  0  0  0  0  0
   -0.6573   -2.0371    0.0000 O   0  0  0  0  0  0  0  0  0  0  0  0
   -1.0609   -0.6638    0.0000 O   0  5  0  0  0  0  0  0  0  0  0  0
  1  2  1  0  0  0  0
  2  3  2  0  0  0  0
  2  4  1  0  0  0  0
  3  5  1  0  0  0  0
  3  6  1  0  0  0  0
  4  7  2  0  0  0  0
  5  8  2  0  0  0  0
  5  9  1  0  0  0  0
  6 10  2  0  0  0  0
  8 11  1  0  0  0  0
  9 12  2  0  0  0  0
  9 13  1  0  0  0  0
 11 14  1  0  0  0  0
 12 15  1  0  0  0  0
 12 16  1  0  0  0  0
 13 17  2  0  0  0  0
 14 18  2  0  0  0  0
 16 19  2  0  0  0  0
 17 20  1  0  0  0  0
 20 21  2  0  0  0  0
 20 22  1  0  0  0  0
  7 10  1  0  0  0  0
 14 15  1  0  0  0  0
 17 19  1  0  0  0  0
M  CHG  2  20   1  22  -1
M  END

>  <name>
Clonazepam

>  <ROTATABLE_BONDCOUNT>
2

>  <HBDScore>
0.8333333333333334

>  <dipole>
6.00

>  <logD>
3.15

>  <MPOScore>
5.183333333333334

>  <logDScore>
0.42500000000000004

>  <MW>
315.71

>  <charge_dist(7.4)>
-0.00

>  <CNS>
TRUE

>  <ArRings>
2

>  <HBD>
1

>  <BALABAN_INDEX>
1.79

>  <bpKa>
1.89

>  <TPSAScore>
1.0

>  <MWScore>
1.0

>  <bpKaScore>
1.0

>  <logPScore>
0.925

>  <MPO_area>
74.58

>  <TPSA>
84.60

>  <logP>
3.15

$$$$

  Mrv1722703221715202D          

 23 26  0  0  0  0            999 V2000
    0.0000    0.0000    0.0000 Cl  0  0  0  0  0  0  0  0  0  0  0  0
    0.4373    0.7114    0.0000 C   0  0  0  0  0  0  0  0  0  0  0  0
    1.2597    0.6853    0.0000 C   0  0  0  0  0  0  0  0  0  0  0  0
    0.0457    1.4489    0.0000 C   0  0  0  0  0  0  0  0  0  0  0  0
    1.6969    1.3967    0.0000 C   0  0  0  0  0  0  0  0  0  0  0  0
    0.4829    2.1603    0.0000 C   0  0  0  0  0  0  0  0  0  0  0  0
    2.5062    1.2466    0.0000 N   0  0  0  0  0  0  0  0  0  0  0  0
    1.3053    2.1342    0.0000 C   0  0  0  0  0  0  0  0  0  0  0  0
    3.1262    1.7948    0.0000 C   0  0  0  0  0  0  0  0  0  0  0  0
    1.6316    2.9044    0.0000 N   0  0  0  0  0  0  0  0  0  0  0  0
    3.8834    1.4685    0.0000 N   0  0  0  0  0  0  0  0  0  0  0  0
    3.0871    2.6302    0.0000 C   0  0  0  0  0  0  0  0  0  0  0  0
    2.4279    3.1262    0.0000 C   0  0  0  0  0  0  0  0  0  0  0  0
    3.9682    0.6527    0.0000 C   0  0  0  0  0  0  0  0  0  0  0  0
    4.5425    1.9710    0.0000 C   0  0  0  0  0  0  0  0  0  0  0  0
    3.8376    2.9696    0.0000 C   0  0  0  0  0  0  0  0  0  0  0  0
    2.5127    3.9551    0.0000 C   0  0  0  0  0  0  0  0  0  0  0  0
    4.7253    0.3263    0.0000 C   0  0  0  0  0  0  0  0  0  0  0  0
    5.2996    1.6447    0.0000 C   0  0  0  0  0  0  0  0  0  0  0  0
    3.9225    3.7985    0.0000 C   0  0  0  0  0  0  0  0  0  0  0  0
    3.2633    4.2945    0.0000 C   0  0  0  0  0  0  0  0  0  0  0  0
    5.3845    0.8289    0.0000 N   0  0  0  0  0  0  0  0  0  0  0  0
    6.1416    0.5025    0.0000 C   0  0  0  0  0  0  0  0  0  0  0  0
  1  2  1  0  0  0  0
  2  3  2  0  0  0  0
  2  4  1  0  0  0  0
  3  5  1  0  0  0  0
  4  6  2  0  0  0  0
  5  7  1  0  0  0  0
  5  8  2  0  0  0  0
  7  9  2  0  0  0  0
  8 10  1  0  0  0  0
  9 11  1  0  0  0  0
  9 12  1  0  0  0  0
 10 13  1  0  0  0  0
 11 14  1  0  0  0  0
 11 15  1  0  0  0  0
 12 16  2  0  0  0  0
 13 17  2  0  0  0  0
 14 18  1  0  0  0  0
 15 19  1  0  0  0  0
 16 20  1  0  0  0  0
 17 21  1  0  0  0  0
 18 22  1  0  0  0  0
 22 23  1  0  0  0  0
  6  8  1  0  0  0  0
 12 13  1  0  0  0  0
 19 22  1  0  0  0  0
 20 21  2  0  0  0  0
M  END

>  <name>
Clozapine

>  <ROTATABLE_BONDCOUNT>
0

>  <HBDScore>
0.8333333333333334

>  <dipole>
5.57

>  <logD>
3.12

>  <MPOScore>
4.616833333333333

>  <logDScore>
0.43999999999999995

>  <MW>
326.83

>  <charge_dist(7.4)>
0.47

>  <CNS>
TRUE

>  <ArRings>
2

>  <HBD>
1

>  <BALABAN_INDEX>
1.48

>  <bpKa>
7.35

>  <TPSAScore>
0.5435000000000001

>  <MWScore>
1.0

>  <bpKaScore>
1.0

>  <logPScore>
0.8

>  <MPO_area>
60.23

>  <TPSA>
30.87

>  <logP>
3.40

$$$$

  Mrv1722703221715202D          

  7  7  0  0  0  0            999 V2000
    0.0000    0.0000    0.0000 O   0  0  0  0  0  0  0  0  0  0  0  0
    0.6615    0.4929    0.0000 C   0  0  0  0  0  0  0  0  0  0  0  0
    1.4399    0.2465    0.0000 N   0  0  0  0  0  0  0  0  0  0  0  0
    0.6551    1.3232    0.0000 C   0  0  1  0  0  0  0  0  0  0  0  0
    1.9198    0.9210    0.0000 O   0  0  0  0  0  0  0  0  0  0  0  0
   -0.0195    1.8161    0.0000 N   0  0  0  0  0  0  0  0  0  0  0  0
    1.4334    1.5825    0.0000 C   0  0  0  0  0  0  0  0  0  0  0  0
  1  2  2  0  0  0  0
  2  3  1  0  0  0  0
  2  4  1  0  0  0  0
  3  5  1  0  0  0  0
  4  6  1  1  0  0  0
  4  7  1  0  0  0  0
  5  7  1  0  0  0  0
M  END

>  <name>
Cycloserine

>  <ROTATABLE_BONDCOUNT>
0

>  <HBDScore>
0.5

>  <dipole>
3.86

>  <logD>
-2.42

>  <MPOScore>
5.32

>  <logDScore>
1.0

>  <MW>
102.093

>  <charge_dist(7.4)>
-0.10

>  <CNS>
TRUE

>  <ArRings>
0

>  <HBD>
2

>  <BALABAN_INDEX>
1.99

>  <bpKa>
8.36

>  <TPSAScore>
1.0

>  <MWScore>
1.0

>  <bpKaScore>
0.8200000000000003

>  <logPScore>
1.0

>  <MPO_area>
78.83

>  <TPSA>
64.35

>  <logP>
-2.42

$$$$

  Mrv1722703221715202D          

 25 29  0  0  0  0            999 V2000
    0.0000    0.0000    0.0000 O   0  0  0  0  0  0  0  0  0  0  0  0
   -0.1757    0.8200    0.0000 N   0  0  0  0  0  0  0  0  0  0  0  0
    0.8200   -0.0846    0.0000 C   0  0  0  0  0  0  0  0  0  0  0  0
    0.5401    1.2429    0.0000 C   0  0  0  0  0  0  0  0  0  0  0  0
    1.1518    0.6833    0.0000 C   0  0  0  0  0  0  0  0  0  0  0  0
    1.3015   -0.7484    0.0000 C   0  0  0  0  0  0  0  0  0  0  0  0
    1.9717    0.7744    0.0000 C   0  0  0  0  0  0  0  0  0  0  0  0
    2.1214   -0.6572    0.0000 C   0  0  0  0  0  0  0  0  0  0  0  0
    2.4533    0.1106    0.0000 C   0  0  2  0  0  0  0  0  0  0  0  0
    2.6030   -1.3210    0.0000 C   0  0  0  0  0  0  0  0  0  0  0  0
    3.2732    0.2018    0.0000 C   0  0  1  0  0  0  0  0  0  0  0  0
    2.7852    0.8785    0.0000 C   0  0  0  0  0  0  0  0  0  0  0  0
    3.4229   -1.2299    0.0000 C   0  0  0  0  0  0  0  0  0  0  0  0
    3.7548   -0.4620    0.0000 C   0  0  2  0  0  0  0  0  0  0  0  0
    3.6051    0.9696    0.0000 C   0  0  0  0  0  0  0  0  0  0  0  0
    4.5747   -0.3709    0.0000 C   0  0  2  0  0  0  0  0  0  0  0  0
    4.4251    1.0607    0.0000 C   0  0  0  0  0  0  0  0  0  0  0  0
    4.9066    0.3969    0.0000 C   0  0  1  0  0  0  0  0  0  0  0  0
    5.1864   -0.9241    0.0000 C   0  0  0  0  0  0  0  0  0  0  0  0
    5.7265    0.3123    0.0000 C   0  0  1  0  0  0  0  0  0  0  0  0
    5.2255    1.1648    0.0000 C   0  0  0  0  0  0  0  0  0  0  0  0
    5.9022   -0.5011    0.0000 C   0  0  0  0  0  0  0  0  0  0  0  0
    5.8241    1.1453    0.0000 O   0  0  0  0  0  0  0  0  0  0  0  0
    6.5465    0.4035    0.0000 C   0  0  0  0  0  0  0  0  0  0  0  0
    7.3664    0.4946    0.0000 C   0  0  0  0  0  0  0  0  0  0  0  0
  1  2  1  0  0  0  0
  1  3  1  0  0  0  0
  2  4  2  0  0  0  0
  3  5  2  0  0  0  0
  3  6  1  0  0  0  0
  5  7  1  0  0  0  0
  6  8  2  0  0  0  0
  7  9  1  0  0  0  0
  8 10  1  0  0  0  0
  9 11  1  0  0  0  0
  9 12  1  6  0  0  0
 10 13  1  0  0  0  0
 11 14  1  0  0  0  0
 11 15  1  6  0  0  0
 14 16  1  0  0  0  0
 15 17  1  0  0  0  0
 16 18  1  0  0  0  0
 16 19  1  6  0  0  0
 18 20  1  0  0  0  0
 18 21  1  6  0  0  0
 19 22  1  0  0  0  0
 20 23  1  6  0  0  0
 20 24  1  0  0  0  0
 24 25  3  0  0  0  0
  4  5  1  0  0  0  0
  8  9  1  0  0  0  0
 14 13  1  1  0  0  0
 17 18  1  0  0  0  0
 20 22  1  0  0  0  0
M  END

>  <name>
Danazol

>  <ROTATABLE_BONDCOUNT>
0

>  <HBDScore>
0.8333333333333334

>  <dipole>
2.33

>  <logD>
3.46

>  <MPOScore>
4.873333333333333

>  <logDScore>
0.27

>  <MW>
337.463

>  <charge_dist(7.4)>
0.00

>  <CNS>
TRUE

>  <ArRings>
1

>  <HBD>
1

>  <BALABAN_INDEX>
1.20

>  <bpKa>
0.25

>  <TPSAScore>
1.0

>  <MWScore>
1.0

>  <bpKaScore>
1.0

>  <logPScore>
0.77

>  <MPO_area>
65.88

>  <TPSA>
46.26

>  <logP>
3.46

$$$$

  Mrv1722703221715202D          

 17 18  0  0  0  0            999 V2000
    0.0000    0.0000    0.0000 S   0  0  0  0  0  0  0  0  0  0  0  0
   -0.0065    0.8314    0.0000 O   0  0  0  0  0  0  0  0  0  0  0  0
   -0.0065   -0.8184    0.0000 O   0  0  0  0  0  0  0  0  0  0  0  0
    0.8184    0.0065    0.0000 C   0  0  0  0  0  0  0  0  0  0  0  0
   -0.8314    0.0065    0.0000 C   0  0  0  0  0  0  0  0  0  0  0  0
    1.2276   -0.7015    0.0000 C   0  0  0  0  0  0  0  0  0  0  0  0
    1.2276    0.7274    0.0000 C   0  0  0  0  0  0  0  0  0  0  0  0
   -1.2471    0.7274    0.0000 C   0  0  0  0  0  0  0  0  0  0  0  0
   -1.2471   -0.7015    0.0000 C   0  0  0  0  0  0  0  0  0  0  0  0
    2.0460   -0.6950    0.0000 C   0  0  0  0  0  0  0  0  0  0  0  0
    2.0460    0.7340    0.0000 C   0  0  0  0  0  0  0  0  0  0  0  0
   -2.0785    0.7340    0.0000 C   0  0  0  0  0  0  0  0  0  0  0  0
   -2.0785   -0.6950    0.0000 C   0  0  0  0  0  0  0  0  0  0  0  0
    2.4552    0.0260    0.0000 C   0  0  0  0  0  0  0  0  0  0  0  0
   -2.4942    0.0260    0.0000 C   0  0  0  0  0  0  0  0  0  0  0  0
    3.2736    0.0325    0.0000 N   0  0  0  0  0  0  0  0  0  0  0  0
   -3.3255    0.0325    0.0000 N   0  0  0  0  0  0  0  0  0  0  0  0
  1  2  2  0  0  0  0
  1  3  2  0  0  0  0
  1  4  1  0  0  0  0
  1  5  1  0  0  0  0
  4  6  2  0  0  0  0
  4  7  1  0  0  0  0
  5  8  2  0  0  0  0
  5  9  1  0  0  0  0
  6 10  1  0  0  0  0
  7 11  2  0  0  0  0
  8 12  1  0  0  0  0
  9 13  2  0  0  0  0
 10 14  2  0  0  0  0
 12 15  2  0  0  0  0
 14 16  1  0  0  0  0
 15 17  1  0  0  0  0
 11 14  1  0  0  0  0
 13 15  1  0  0  0  0
M  END

>  <name>
Dapsone

>  <ROTATABLE_BONDCOUNT>
2

>  <HBDScore>
0.5

>  <dipole>
13.54

>  <logD>
1.27

>  <MPOScore>
5.5

>  <logDScore>
1.0

>  <MW>
248.30

>  <charge_dist(7.4)>
0.00

>  <CNS>
TRUE

>  <ArRings>
2

>  <HBD>
2

>  <BALABAN_INDEX>
1.93

>  <bpKa>
2.39

>  <TPSAScore>
1.0

>  <MWScore>
1.0

>  <bpKaScore>
1.0

>  <logPScore>
1.0

>  <MPO_area>
83.33

>  <TPSA>
86.18

>  <logP>
1.27

$$$$

  Mrv1722703221715202D          

 33 36  0  0  0  0            999 V2000
    0.0000    0.0000    0.0000 Cl  0  0  0  0  0  0  0  0  0  0  0  0
   -0.0652   -0.8215    0.0000 C   0  0  0  0  0  0  0  0  0  0  0  0
    0.6194   -1.2780    0.0000 C   0  0  0  0  0  0  0  0  0  0  0  0
   -0.8150   -1.1802    0.0000 C   0  0  0  0  0  0  0  0  0  0  0  0
    1.3562   -0.9063    0.0000 N   0  0  0  0  0  0  0  0  0  0  0  0
    0.5542   -2.0995    0.0000 C   0  0  0  0  0  0  0  0  0  0  0  0
   -0.8802   -2.0017    0.0000 C   0  0  0  0  0  0  0  0  0  0  0  0
    1.4083   -0.0717    0.0000 C   0  0  0  0  0  0  0  0  0  0  0  0
   -0.1956   -2.4581    0.0000 C   0  0  0  0  0  0  0  0  0  0  0  0
    1.2388   -2.5559    0.0000 C   0  0  0  0  0  0  0  0  0  0  0  0
    0.7107    0.3977    0.0000 O   0  0  0  0  0  0  0  0  0  0  0  0
    2.1451    0.2999    0.0000 C   0  0  0  0  0  0  0  0  0  0  0  0
    2.8688   -0.0847    0.0000 S   0  0  0  0  0  0  0  0  0  0  0  0
    2.2820    1.1215    0.0000 C   0  0  0  0  0  0  0  0  0  0  0  0
    3.4557    0.5021    0.0000 C   0  0  0  0  0  0  0  0  0  0  0  0
    3.0971    1.2454    0.0000 N   0  0  0  0  0  0  0  0  0  0  0  0
    4.2641    0.3651    0.0000 N   0  0  0  0  0  0  0  0  0  0  0  0
    4.5445   -0.4108    0.0000 C   0  0  0  0  0  0  0  0  0  0  0  0
    5.3530   -0.5477    0.0000 N   0  0  0  0  0  0  0  0  0  0  0  0
    4.0034   -1.0432    0.0000 C   0  0  0  0  0  0  0  0  0  0  0  0
    5.6333   -1.3236    0.0000 C   0  0  0  0  0  0  0  0  0  0  0  0
    4.2837   -1.8191    0.0000 C   0  0  0  0  0  0  0  0  0  0  0  0
    5.0922   -1.9560    0.0000 N   0  0  0  0  0  0  0  0  0  0  0  0
    6.4419   -1.4605    0.0000 C   0  0  0  0  0  0  0  0  0  0  0  0
    3.7425   -2.4516    0.0000 N   0  0  0  0  0  0  0  0  0  0  0  0
    2.9210   -2.3016    0.0000 C   0  0  0  0  0  0  0  0  0  0  0  0
    4.0229   -3.2275    0.0000 C   0  0  0  0  0  0  0  0  0  0  0  0
    2.3798   -2.9340    0.0000 C   0  0  0  0  0  0  0  0  0  0  0  0
    3.4817   -3.8599    0.0000 C   0  0  0  0  0  0  0  0  0  0  0  0
    2.6602   -3.7099    0.0000 N   0  0  0  0  0  0  0  0  0  0  0  0
    2.1190   -4.3424    0.0000 C   0  0  0  0  0  0  0  0  0  0  0  0
    2.3994   -5.1183    0.0000 C   0  0  0  0  0  0  0  0  0  0  0  0
    1.8583   -5.7507    0.0000 O   0  0  0  0  0  0  0  0  0  0  0  0
  1  2  1  0  0  0  0
  2  3  2  0  0  0  0
  2  4  1  0  0  0  0
  3  5  1  0  0  0  0
  3  6  1  0  0  0  0
  4  7  2  0  0  0  0
  5  8  1  0  0  0  0
  6  9  2  0  0  0  0
  6 10  1  0  0  0  0
  8 11  2  0  0  0  0
  8 12  1  0  0  0  0
 12 13  1  0  0  0  0
 12 14  2  0  0  0  0
 13 15  1  0  0  0  0
 14 16  1  0  0  0  0
 15 17  1  0  0  0  0
 17 18  1  0  0  0  0
 18 19  2  0  0  0  0
 18 20  1  0  0  0  0
 19 21  1  0  0  0  0
 20 22  2  0  0  0  0
 21 23  2  0  0  0  0
 21 24  1  0  0  0  0
 22 25  1  0  0  0  0
 25 26  1  0  0  0  0
 25 27  1  0  0  0  0
 26 28  1  0  0  0  0
 27 29  1  0  0  0  0
 28 30  1  0  0  0  0
 30 31  1  0  0  0  0
 31 32  1  0  0  0  0
 32 33  1  0  0  0  0
  7  9  1  0  0  0  0
 15 16  2  0  0  0  0
 22 23  1  0  0  0  0
 29 30  1  0  0  0  0
M  END

>  <name>
Dasatinib

>  <ROTATABLE_BONDCOUNT>
7

>  <HBDScore>
0.16666666666666674

>  <dipole>
2.33

>  <logD>
3.76

>  <MPOScore>
2.4069761904761906

>  <logDScore>
0.1200000000000001

>  <MW>
488.01

>  <charge_dist(7.4)>
0.30

>  <CNS>
TRUE

>  <ArRings>
3

>  <HBD>
3

>  <BALABAN_INDEX>
1.19

>  <bpKa>
7.18

>  <TPSAScore>
0.44966666666666655

>  <MWScore>
0.08564285714285724

>  <bpKaScore>
1.0

>  <logPScore>
0.585

>  <MPO_area>
17.32

>  <TPSA>
106.51

>  <logP>
3.83

$$$$

  Mrv1722703221715202D          

 22 25  0  0  0  0            999 V2000
    0.0000    0.0000    0.0000 Cl  0  0  0  0  0  0  0  0  0  0  0  0
    0.8226    0.0000    0.0000 C   0  0  0  0  0  0  0  0  0  0  0  0
    1.2404    0.7181    0.0000 C   0  0  0  0  0  0  0  0  0  0  0  0
    1.2208   -0.7181    0.0000 C   0  0  0  0  0  0  0  0  0  0  0  0
    2.0630    0.7181    0.0000 C   0  0  0  0  0  0  0  0  0  0  0  0
    2.0434   -0.7181    0.0000 C   0  0  0  0  0  0  0  0  0  0  0  0
    2.4612    0.0000    0.0000 C   0  0  0  0  0  0  0  0  0  0  0  0
    2.3698    1.4950    0.0000 C   0  0  0  0  0  0  0  0  0  0  0  0
    3.2707   -0.1240    0.0000 C   0  0  0  0  0  0  0  0  0  0  0  0
    3.1598    1.7365    0.0000 C   0  0  0  0  0  0  0  0  0  0  0  0
    3.8779    0.4374    0.0000 C   0  0  0  0  0  0  0  0  0  0  0  0
    3.4993   -0.9140    0.0000 C   0  0  0  0  0  0  0  0  0  0  0  0
    3.8322    1.2665    0.0000 C   0  0  0  0  0  0  0  0  0  0  0  0
    4.6156    0.0783    0.0000 N   0  0  0  0  0  0  0  0  0  0  0  0
    2.9248   -1.5081    0.0000 C   0  0  0  0  0  0  0  0  0  0  0  0
    4.3023   -1.1033    0.0000 C   0  0  0  0  0  0  0  0  0  0  0  0
    4.5177    1.7301    0.0000 C   0  0  0  0  0  0  0  0  0  0  0  0
    5.3011    0.5419    0.0000 C   0  0  0  0  0  0  0  0  0  0  0  0
    3.1532   -2.2980    0.0000 C   0  0  0  0  0  0  0  0  0  0  0  0
    4.5307   -1.8932    0.0000 C   0  0  0  0  0  0  0  0  0  0  0  0
    5.2554    1.3710    0.0000 C   0  0  0  0  0  0  0  0  0  0  0  0
    3.9562   -2.4873    0.0000 N   0  0  0  0  0  0  0  0  0  0  0  0
  1  2  1  0  0  0  0
  2  3  2  0  0  0  0
  2  4  1  0  0  0  0
  3  5  1  0  0  0  0
  4  6  2  0  0  0  0
  5  7  2  0  0  0  0
  5  8  1  0  0  0  0
  7  9  1  0  0  0  0
  8 10  1  0  0  0  0
  9 11  1  0  0  0  0
  9 12  2  0  0  0  0
 10 13  1  0  0  0  0
 11 14  2  0  0  0  0
 12 15  1  0  0  0  0
 12 16  1  0  0  0  0
 13 17  2  0  0  0  0
 14 18  1  0  0  0  0
 15 19  1  0  0  0  0
 16 20  1  0  0  0  0
 17 21  1  0  0  0  0
 19 22  1  0  0  0  0
  6  7  1  0  0  0  0
 11 13  1  0  0  0  0
 18 21  2  0  0  0  0
 20 22  1  0  0  0  0
M  END

>  <name>
Desloratadine

>  <ROTATABLE_BONDCOUNT>
0

>  <HBDScore>
0.8333333333333334

>  <dipole>
8.46

>  <logD>
1.69

>  <MPOScore>
3.729333333333333

>  <logDScore>
1.0

>  <MW>
310.83

>  <charge_dist(7.4)>
1.00

>  <CNS>
FALSE

>  <ArRings>
2

>  <HBD>
1

>  <BALABAN_INDEX>
1.60

>  <bpKa>
9.73

>  <TPSAScore>
0.2460000000000001

>  <MWScore>
1.0

>  <bpKaScore>
0.1349999999999998

>  <logPScore>
0.5149999999999999

>  <MPO_area>
42.62

>  <TPSA>
24.92

>  <logP>
3.97

$$$$

  Mrv1722703221715202D          

 19 20  0  0  0  0            999 V2000
    0.0000    0.0000    0.0000 O   0  0  0  0  0  0  0  0  0  0  0  0
   -0.8201    0.0897    0.0000 C   0  0  0  0  0  0  0  0  0  0  0  0
   -1.3071   -0.5639    0.0000 C   0  0  0  0  0  0  0  0  0  0  0  0
   -1.1597    0.8458    0.0000 C   0  0  0  0  0  0  0  0  0  0  0  0
   -2.1272   -0.4741    0.0000 C   0  0  0  0  0  0  0  0  0  0  0  0
   -1.9799    0.9355    0.0000 C   0  0  0  0  0  0  0  0  0  0  0  0
   -2.4668    0.2819    0.0000 C   0  0  0  0  0  0  0  0  0  0  0  0
   -3.2869    0.3716    0.0000 C   0  0  2  0  0  0  0  0  0  0  0  0
   -3.7739   -0.2819    0.0000 C   0  0  0  0  0  0  0  0  0  0  0  0
   -3.6265    1.1277    0.0000 C   0  0  0  0  0  0  0  0  0  0  0  0
   -3.0434   -0.6343    0.0000 O   0  0  0  0  0  0  0  0  0  0  0  0
   -4.3505    0.3140    0.0000 C   0  0  0  0  0  0  0  0  0  0  0  0
   -4.0046   -1.0636    0.0000 C   0  0  0  0  0  0  0  0  0  0  0  0
   -4.4467    1.2174    0.0000 N   0  0  0  0  0  0  0  0  0  0  0  0
   -5.1515    0.1218    0.0000 C   0  0  0  0  0  0  0  0  0  0  0  0
   -4.8055   -1.2558    0.0000 C   0  0  0  0  0  0  0  0  0  0  0  0
   -4.7862    1.9734    0.0000 C   0  0  0  0  0  0  0  0  0  0  0  0
   -4.9336    0.5639    0.0000 C   0  0  0  0  0  0  0  0  0  0  0  0
   -5.3821   -0.6600    0.0000 C   0  0  0  0  0  0  0  0  0  0  0  0
  1  2  1  0  0  0  0
  2  3  2  0  0  0  0
  2  4  1  0  0  0  0
  3  5  1  0  0  0  0
  4  6  2  0  0  0  0
  5  7  2  0  0  0  0
  7  8  1  0  0  0  0
  8  9  1  0  0  0  0
  8 10  1  6  0  0  0
  9 11  1  0  0  0  0
  9 12  1  0  0  0  0
  9 13  1  0  0  0  0
 10 14  1  0  0  0  0
 12 15  1  0  0  0  0
 13 16  1  0  0  0  0
 14 17  1  0  0  0  0
 14 18  1  0  0  0  0
 15 19  1  0  0  0  0
  6  7  1  0  0  0  0
 16 19  1  0  0  0  0
M  END

>  <name>
Desvenlafaxine

>  <ROTATABLE_BONDCOUNT>
4

>  <HBDScore>
0.5

>  <dipole>
3.01

>  <logD>
1.07

>  <MPOScore>
5.065

>  <logDScore>
1.0

>  <MW>
263.381

>  <charge_dist(7.4)>
0.97

>  <CNS>
TRUE

>  <ArRings>
1

>  <HBD>
2

>  <BALABAN_INDEX>
1.85

>  <bpKa>
8.87

>  <TPSAScore>
1.0

>  <MWScore>
1.0

>  <bpKaScore>
0.5650000000000004

>  <logPScore>
1.0

>  <MPO_area>
72.46

>  <TPSA>
43.70

>  <logP>
2.29

$$$$

  Mrv1722703221715202D          

 17 18  0  0  0  0            999 V2000
    0.0000    0.0000    0.0000 O   0  0  0  0  0  0  0  0  0  0  0  0
   -0.6510    0.5170    0.0000 C   0  0  0  0  0  0  0  0  0  0  0  0
   -1.4169    0.2234    0.0000 O   0  0  0  0  0  0  0  0  0  0  0  0
   -0.5362    1.3339    0.0000 C   0  0  1  0  0  0  0  0  0  0  0  0
   -1.5446   -0.5808    0.0000 C   0  0  0  0  0  0  0  0  0  0  0  0
   -1.1871    1.8509    0.0000 C   0  0  0  0  0  0  0  0  0  0  0  0
    0.2170    1.6403    0.0000 C   0  0  1  0  0  0  0  0  0  0  0  0
   -1.0722    2.6679    0.0000 C   0  0  0  0  0  0  0  0  0  0  0  0
   -1.9530    1.5573    0.0000 C   0  0  0  0  0  0  0  0  0  0  0  0
    0.8553    1.1361    0.0000 N   0  0  0  0  0  0  0  0  0  0  0  0
    0.3319    2.4572    0.0000 C   0  0  0  0  0  0  0  0  0  0  0  0
   -1.7233    3.1849    0.0000 C   0  0  0  0  0  0  0  0  0  0  0  0
   -2.6041    2.0743    0.0000 C   0  0  0  0  0  0  0  0  0  0  0  0
    1.6084    1.4424    0.0000 C   0  0  0  0  0  0  0  0  0  0  0  0
    1.0850    2.7636    0.0000 C   0  0  0  0  0  0  0  0  0  0  0  0
   -2.4892    2.8912    0.0000 C   0  0  0  0  0  0  0  0  0  0  0  0
    1.7233    2.2594    0.0000 C   0  0  0  0  0  0  0  0  0  0  0  0
  1  2  2  0  0  0  0
  2  3  1  0  0  0  0
  4  2  1  1  0  0  0
  3  5  1  0  0  0  0
  4  6  1  0  0  0  0
  4  7  1  0  0  0  0
  6  8  2  0  0  0  0
  6  9  1  0  0  0  0
  7 10  1  6  0  0  0
  7 11  1  0  0  0  0
  8 12  1  0  0  0  0
  9 13  2  0  0  0  0
 10 14  1  0  0  0  0
 11 15  1  0  0  0  0
 12 16  2  0  0  0  0
 14 17  1  0  0  0  0
 13 16  1  0  0  0  0
 15 17  1  0  0  0  0
M  END

>  <name>
Dexmethylphenidate

>  <ROTATABLE_BONDCOUNT>
4

>  <HBDScore>
0.8333333333333334

>  <dipole>
2.71

>  <logD>
0.57

>  <MPOScore>
5.204833333333333

>  <logDScore>
1.0

>  <MW>
233.311

>  <charge_dist(7.4)>
0.98

>  <CNS>
TRUE

>  <ArRings>
1

>  <HBD>
1

>  <BALABAN_INDEX>
2.00

>  <bpKa>
9.09

>  <TPSAScore>
0.9165

>  <MWScore>
1.0

>  <bpKaScore>
0.45500000000000007

>  <logPScore>
1.0

>  <MPO_area>
75.24

>  <TPSA>
38.33

>  <logP>
2.25

$$$$

  Mrv1722703221715202D          

 20 23  0  0  0  0            999 V2000
    0.0000    0.0000    0.0000 O   0  0  0  0  0  0  0  0  0  0  0  0
   -0.7316    0.3949    0.0000 C   0  0  0  0  0  0  0  0  0  0  0  0
    0.6928    0.4402    0.0000 C   0  0  0  0  0  0  0  0  0  0  0  0
   -1.4373   -0.0324    0.0000 C   0  0  0  0  0  0  0  0  0  0  0  0
   -0.7640    1.2236    0.0000 C   0  0  0  0  0  0  0  0  0  0  0  0
   -2.1688    0.3625    0.0000 C   0  0  0  0  0  0  0  0  0  0  0  0
   -1.4955    1.6185    0.0000 C   0  0  0  0  0  0  0  0  0  0  0  0
   -2.2012    1.1912    0.0000 C   0  0  0  0  0  0  0  0  0  0  0  0
   -2.8745   -0.0647    0.0000 C   0  0  2  0  0  0  0  0  0  0  0  0
   -2.9328    1.5862    0.0000 C   0  0  0  0  0  0  0  0  0  0  0  0
   -2.9069    0.7640    0.0000 C   0  0  1  0  0  0  0  0  0  0  0  0
   -3.5802   -0.4920    0.0000 C   0  0  0  0  0  0  0  0  0  0  0  0
   -2.8551    0.1942    0.0000 C   0  0  0  0  0  0  0  0  0  0  0  0
   -3.6385    1.1589    0.0000 C   0  0  1  0  0  0  0  0  0  0  0  0
   -2.8681    0.5179    0.0000 C   0  0  0  0  0  0  0  0  0  0  0  0
   -4.3118   -0.0971    0.0000 C   0  0  0  0  0  0  0  0  0  0  0  0
   -2.8357    0.0582    0.0000 C   0  0  0  0  0  0  0  0  0  0  0  0
   -4.3442    0.7316    0.0000 N   0  0  0  0  0  0  0  0  0  0  0  0
   -2.8616    0.6668    0.0000 C   0  0  0  0  0  0  0  0  0  0  0  0
   -5.0757    1.1265    0.0000 C   0  0  0  0  0  0  0  0  0  0  0  0
  1  2  1  0  0  0  0
  1  3  1  0  0  0  0
  2  4  2  0  0  0  0
  2  5  1  0  0  0  0
  4  6  1  0  0  0  0
  5  7  2  0  0  0  0
  6  8  2  0  0  0  0
  9  6  1  1  0  0  0
  8 10  1  0  0  0  0
  9 11  1  0  0  0  0
  9 12  1  0  0  0  0
  9 13  1  0  0  0  0
 14 10  1  1  0  0  0
 11 15  1  1  0  0  0
 12 16  1  0  0  0  0
 13 17  1  0  0  0  0
 14 18  1  0  0  0  0
 15 19  1  0  0  0  0
 18 20  1  0  0  0  0
  7  8  1  0  0  0  0
 11 14  1  0  0  0  0
 16 18  1  0  0  0  0
 17 19  1  0  0  0  0
M  END

>  <name>
Dextromethorphan

>  <ROTATABLE_BONDCOUNT>
1

>  <HBDScore>
1.0

>  <dipole>
3.89

>  <logD>
1.08

>  <MPOScore>
3.83

>  <logDScore>
1.0

>  <MW>
271.404

>  <charge_dist(7.4)>
1.00

>  <CNS>
TRUE

>  <ArRings>
1

>  <HBD>
0

>  <BALABAN_INDEX>
1.46

>  <bpKa>
9.85

>  <TPSAScore>
0.0

>  <MWScore>
1.0

>  <bpKaScore>
0.07500000000000018

>  <logPScore>
0.7549999999999999

>  <MPO_area>
46.86

>  <TPSA>
12.47

>  <logP>
3.49

$$$$

  Mrv1722703221715202D          

 22 23  0  0  0  0            999 V2000
    0.0000    0.0000    0.0000 O   0  0  0  0  0  0  0  0  0  0  0  0
    0.0194    0.8288    0.0000 C   0  0  0  0  0  0  0  0  0  0  0  0
   -0.6864    1.2691    0.0000 O   0  0  0  0  0  0  0  0  0  0  0  0
    0.7382    1.2239    0.0000 C   0  0  0  0  0  0  0  0  0  0  0  0
   -1.4181    0.8871    0.0000 C   0  0  0  0  0  0  0  0  0  0  0  0
    0.9842    0.4468    0.0000 C   0  0  0  0  0  0  0  0  0  0  0  0
    1.5476    1.3468    0.0000 C   0  0  0  0  0  0  0  0  0  0  0  0
    0.2267    1.8778    0.0000 C   0  0  0  0  0  0  0  0  0  0  0  0
   -2.1239    1.3274    0.0000 C   0  0  0  0  0  0  0  0  0  0  0  0
    0.4274   -0.1619    0.0000 C   0  0  0  0  0  0  0  0  0  0  0  0
    1.7807    0.2849    0.0000 C   0  0  0  0  0  0  0  0  0  0  0  0
    1.8454    2.1174    0.0000 C   0  0  0  0  0  0  0  0  0  0  0  0
    0.5245    2.6484    0.0000 C   0  0  0  0  0  0  0  0  0  0  0  0
   -2.8556    0.9454    0.0000 N   0  0  0  0  0  0  0  0  0  0  0  0
    0.6735   -0.9389    0.0000 C   0  0  0  0  0  0  0  0  0  0  0  0
    2.0268   -0.4921    0.0000 C   0  0  0  0  0  0  0  0  0  0  0  0
    1.3339    2.7714    0.0000 C   0  0  0  0  0  0  0  0  0  0  0  0
   -3.5614    1.3857    0.0000 C   0  0  0  0  0  0  0  0  0  0  0  0
   -2.8880    0.1295    0.0000 C   0  0  0  0  0  0  0  0  0  0  0  0
    1.4699   -1.1008    0.0000 C   0  0  0  0  0  0  0  0  0  0  0  0
   -4.2931    1.0037    0.0000 C   0  0  0  0  0  0  0  0  0  0  0  0
   -3.6197   -0.2525    0.0000 C   0  0  0  0  0  0  0  0  0  0  0  0
  1  2  2  0  0  0  0
  2  3  1  0  0  0  0
  2  4  1  0  0  0  0
  3  5  1  0  0  0  0
  4  6  1  0  0  0  0
  4  7  1  0  0  0  0
  4  8  1  0  0  0  0
  5  9  1  0  0  0  0
  6 10  1  0  0  0  0
  6 11  1  0  0  0  0
  7 12  1  0  0  0  0
  8 13  1  0  0  0  0
  9 14  1  0  0  0  0
 10 15  1  0  0  0  0
 11 16  1  0  0  0  0
 12 17  1  0  0  0  0
 14 18  1  0  0  0  0
 14 19  1  0  0  0  0
 15 20  1  0  0  0  0
 18 21  1  0  0  0  0
 19 22  1  0  0  0  0
 13 17  1  0  0  0  0
 16 20  1  0  0  0  0
M  END

>  <name>
Dicyclomine

>  <ROTATABLE_BONDCOUNT>
8

>  <HBDScore>
1.0

>  <dipole>
1.99

>  <logD>
3.36

>  <MPOScore>
3.352

>  <logDScore>
0.32000000000000006

>  <MW>
309.494

>  <charge_dist(7.4)>
0.97

>  <CNS>
TRUE

>  <ArRings>
0

>  <HBD>
0

>  <BALABAN_INDEX>
1.75

>  <bpKa>
8.96

>  <TPSAScore>
0.477

>  <MWScore>
1.0

>  <bpKaScore>
0.5199999999999996

>  <logPScore>
0.03500000000000014

>  <MPO_area>
32.78

>  <TPSA>
29.54

>  <logP>
4.93

$$$$

  Mrv1722703221715202D          

 15 15  0  0  0  0            999 V2000
    0.0000    0.0000    0.0000 O   0  0  0  0  0  0  0  0  0  0  0  0
   -0.2533    0.7914    0.0000 C   0  0  0  0  0  0  0  0  0  0  0  0
    0.2976    1.4056    0.0000 C   0  0  0  0  0  0  0  0  0  0  0  0
   -1.0636    0.9814    0.0000 C   0  0  1  0  0  0  0  0  0  0  0  0
    0.0443    2.1970    0.0000 C   0  0  0  0  0  0  0  0  0  0  0  0
    1.0953    1.2283    0.0000 C   0  0  0  0  0  0  0  0  0  0  0  0
   -1.3169    1.7728    0.0000 N   0  0  0  0  0  0  0  0  0  0  0  0
   -1.6272    0.3799    0.0000 C   0  0  0  0  0  0  0  0  0  0  0  0
    0.5951    2.8111    0.0000 C   0  0  0  0  0  0  0  0  0  0  0  0
    1.6461    1.8424    0.0000 C   0  0  0  0  0  0  0  0  0  0  0  0
   -2.1273    1.9627    0.0000 C   0  0  0  0  0  0  0  0  0  0  0  0
   -0.7661    2.3869    0.0000 C   0  0  0  0  0  0  0  0  0  0  0  0
    1.3929    2.6338    0.0000 C   0  0  0  0  0  0  0  0  0  0  0  0
   -2.3806    2.7541    0.0000 C   0  0  0  0  0  0  0  0  0  0  0  0
   -1.0194    3.1783    0.0000 C   0  0  0  0  0  0  0  0  0  0  0  0
  1  2  2  0  0  0  0
  2  3  1  0  0  0  0
  2  4  1  0  0  0  0
  3  5  2  0  0  0  0
  3  6  1  0  0  0  0
  4  7  1  6  0  0  0
  4  8  1  0  0  0  0
  5  9  1  0  0  0  0
  6 10  2  0  0  0  0
  7 11  1  0  0  0  0
  7 12  1  0  0  0  0
  9 13  2  0  0  0  0
 11 14  1  0  0  0  0
 12 15  1  0  0  0  0
 10 13  1  0  0  0  0
M  END

>  <name>
Diethylpropion

>  <ROTATABLE_BONDCOUNT>
5

>  <HBDScore>
1.0

>  <dipole>
7.51

>  <logD>
2.38

>  <MPOScore>
4.825500000000001

>  <logDScore>
0.81

>  <MW>
205.301

>  <charge_dist(7.4)>
0.52

>  <CNS>
TRUE

>  <ArRings>
1

>  <HBD>
0

>  <BALABAN_INDEX>
2.29

>  <bpKa>
7.44

>  <TPSAScore>
0.015499999999999937

>  <MWScore>
1.0

>  <bpKaScore>
1.0

>  <logPScore>
1.0

>  <MPO_area>
63.97

>  <TPSA>
20.31

>  <logP>
2.70

$$$$

  Mrv1722703221715202D          

 32 35  0  0  0  0            999 V2000
    0.0000    0.0000    0.0000 O   0  0  0  0  0  0  0  0  0  0  0  0
   -0.7348   -0.3738    0.0000 C   0  0  0  0  0  0  0  0  0  0  0  0
   -0.7734   -1.1859    0.0000 O   0  0  0  0  0  0  0  0  0  0  0  0
   -1.4308    0.0709    0.0000 C   0  0  0  0  0  0  0  0  0  0  0  0
   -0.8895    0.6832    0.0000 C   0  0  0  0  0  0  0  0  0  0  0  0
   -1.7467   -0.6832    0.0000 C   0  0  0  0  0  0  0  0  0  0  0  0
   -1.9400    0.7283    0.0000 C   0  0  0  0  0  0  0  0  0  0  0  0
   -0.0967    0.5156    0.0000 C   0  0  0  0  0  0  0  0  0  0  0  0
   -1.1472    1.4695    0.0000 C   0  0  0  0  0  0  0  0  0  0  0  0
   -2.5652   -0.7863    0.0000 C   0  0  0  0  0  0  0  0  0  0  0  0
   -2.7586    0.6252    0.0000 C   0  0  0  0  0  0  0  0  0  0  0  0
    0.4447    1.1279    0.0000 C   0  0  0  0  0  0  0  0  0  0  0  0
   -0.6058    2.0818    0.0000 C   0  0  0  0  0  0  0  0  0  0  0  0
   -3.0744   -0.1289    0.0000 N   0  0  0  0  0  0  0  0  0  0  0  0
    0.1869    1.9143    0.0000 C   0  0  0  0  0  0  0  0  0  0  0  0
   -3.8929   -0.2320    0.0000 C   0  0  0  0  0  0  0  0  0  0  0  0
   -4.4021    0.4254    0.0000 C   0  0  0  0  0  0  0  0  0  0  0  0
   -5.2206    0.3223    0.0000 C   0  0  0  0  0  0  0  0  0  0  0  0
   -5.1175   -0.4834    0.0000 C   0  0  0  0  0  0  0  0  0  0  0  0
   -6.0391    0.2192    0.0000 C   0  0  0  0  0  0  0  0  0  0  0  0
   -5.3366    1.1408    0.0000 C   0  0  0  0  0  0  0  0  0  0  0  0
   -5.0144   -1.2890    0.0000 N   0  0  0  0  0  0  0  0  0  0  0  0
   -6.5483    0.8766    0.0000 C   0  0  0  0  0  0  0  0  0  0  0  0
   -6.3550   -0.5350    0.0000 C   0  0  0  0  0  0  0  0  0  0  0  0
   -4.6921    1.6499    0.0000 C   0  0  0  0  0  0  0  0  0  0  0  0
   -6.1036    1.4566    0.0000 C   0  0  0  0  0  0  0  0  0  0  0  0
   -7.3669    0.7734    0.0000 C   0  0  0  0  0  0  0  0  0  0  0  0
   -7.1735   -0.6381    0.0000 C   0  0  0  0  0  0  0  0  0  0  0  0
   -4.8081    2.4685    0.0000 C   0  0  0  0  0  0  0  0  0  0  0  0
   -6.2196    2.2752    0.0000 C   0  0  0  0  0  0  0  0  0  0  0  0
   -7.6827    0.0193    0.0000 C   0  0  0  0  0  0  0  0  0  0  0  0
   -5.5751    2.7843    0.0000 C   0  0  0  0  0  0  0  0  0  0  0  0
  1  2  2  0  0  0  0
  2  3  1  0  0  0  0
  2  4  1  0  0  0  0
  4  5  1  0  0  0  0
  4  6  1  0  0  0  0
  4  7  1  0  0  0  0
  5  8  2  0  0  0  0
  5  9  1  0  0  0  0
  6 10  1  0  0  0  0
  7 11  1  0  0  0  0
  8 12  1  0  0  0  0
  9 13  2  0  0  0  0
 10 14  1  0  0  0  0
 12 15  2  0  0  0  0
 14 16  1  0  0  0  0
 16 17  1  0  0  0  0
 17 18  1  0  0  0  0
 18 19  1  0  0  0  0
 18 20  1  0  0  0  0
 18 21  1  0  0  0  0
 19 22  3  0  0  0  0
 20 23  2  0  0  0  0
 20 24  1  0  0  0  0
 21 25  2  0  0  0  0
 21 26  1  0  0  0  0
 23 27  1  0  0  0  0
 24 28  2  0  0  0  0
 25 29  1  0  0  0  0
 26 30  2  0  0  0  0
 27 31  2  0  0  0  0
 29 32  2  0  0  0  0
 11 14  1  0  0  0  0
 13 15  1  0  0  0  0
 28 31  1  0  0  0  0
 30 32  1  0  0  0  0
M  END

>  <name>
Difenoxin

>  <ROTATABLE_BONDCOUNT>
7

>  <HBDScore>
0.8333333333333334

>  <dipole>
4.18

>  <logD>
2.65

>  <MPOScore>
4.342304761904762

>  <logDScore>
0.675

>  <MW>
424.544

>  <charge_dist(7.4)>
-0.01

>  <CNS>
TRUE

>  <ArRings>
3

>  <HBD>
1

>  <BALABAN_INDEX>
1.40

>  <bpKa>
9.41

>  <TPSAScore>
1.0

>  <MWScore>
0.5389714285714287

>  <bpKaScore>
0.29499999999999993

>  <logPScore>
1.0

>  <MPO_area>
53.56

>  <TPSA>
64.33

>  <logP>
2.65

$$$$

  Mrv1722703221715202D          

 22 26  0  0  0  0            999 V2000
    0.0000    0.0000    0.0000 O   0  0  0  0  0  0  0  0  0  0  0  0
   -0.4346    0.7180    0.0000 C   0  0  0  0  0  0  0  0  0  0  0  0
    0.7936    0.1890    0.0000 C   0  0  2  0  0  0  0  0  0  0  0  0
   -1.2471    0.8881    0.0000 C   0  0  0  0  0  0  0  0  0  0  0  0
    0.0945    1.3510    0.0000 C   0  0  0  0  0  0  0  0  0  0  0  0
    0.8598    1.0204    0.0000 C   0  0  2  0  0  0  0  0  0  0  0  0
    1.4550   -0.2740    0.0000 C   0  0  1  0  0  0  0  0  0  0  0  0
   -1.7951    0.2740    0.0000 O   0  0  0  0  0  0  0  0  0  0  0  0
   -1.5211    1.6723    0.0000 C   0  0  0  0  0  0  0  0  0  0  0  0
   -0.1795    2.1352    0.0000 C   0  0  0  0  0  0  0  0  0  0  0  0
    1.5967    1.3794    0.0000 C   0  0  2  0  0  0  0  0  0  0  0  0
    0.5291    1.6628    0.0000 C   0  0  0  0  0  0  0  0  0  0  0  0
    1.3699   -1.0865    0.0000 O   0  0  0  0  0  0  0  0  0  0  0  0
    2.1919    0.0851    0.0000 C   0  0  0  0  0  0  0  0  0  0  0  0
   -2.6076    0.4441    0.0000 C   0  0  0  0  0  0  0  0  0  0  0  0
   -0.9920    2.3053    0.0000 C   0  0  0  0  0  0  0  0  0  0  0  0
    0.5102    2.5793    0.0000 C   0  0  0  0  0  0  0  0  0  0  0  0
    1.6628    2.2108    0.0000 C   0  0  1  0  0  0  0  0  0  0  0  0
    2.2580    0.9164    0.0000 C   0  0  0  0  0  0  0  0  0  0  0  0
    0.5574    2.1069    0.0000 C   0  0  0  0  0  0  0  0  0  0  0  0
    0.9448    2.3147    0.0000 N   0  0  0  0  0  0  0  0  0  0  0  0
    1.0393    3.5240    0.0000 C   0  0  0  0  0  0  0  0  0  0  0  0
  1  2  1  0  0  0  0
  3  1  1  6  0  0  0
  2  4  2  0  0  0  0
  2  5  1  0  0  0  0
  3  6  1  0  0  0  0
  3  7  1  0  0  0  0
  4  8  1  0  0  0  0
  4  9  1  0  0  0  0
  5 10  2  0  0  0  0
  6 11  1  0  0  0  0
  6 12  1  1  0  0  0
  7 13  1  6  0  0  0
  7 14  1  0  0  0  0
  8 15  1  0  0  0  0
  9 16  2  0  0  0  0
 10 17  1  0  0  0  0
 11 18  1  0  0  0  0
 11 19  1  6  0  0  0
 12 20  1  0  0  0  0
 18 21  1  1  0  0  0
 21 22  1  0  0  0  0
  5  6  1  0  0  0  0
 10 16  1  0  0  0  0
 14 19  1  0  0  0  0
 17 18  1  0  0  0  0
 20 21  1  0  0  0  0
M  END

>  <name>
Dihydrocodeine

>  <ROTATABLE_BONDCOUNT>
1

>  <HBDScore>
0.8333333333333334

>  <dipole>
4.10

>  <logD>
-0.38

>  <MPOScore>
5.168333333333333

>  <logDScore>
1.0

>  <MW>
301.386

>  <charge_dist(7.4)>
0.99

>  <CNS>
TRUE

>  <ArRings>
1

>  <HBD>
1

>  <BALABAN_INDEX>
1.50

>  <bpKa>
9.33

>  <TPSAScore>
1.0

>  <MWScore>
1.0

>  <bpKaScore>
0.33499999999999996

>  <logPScore>
1.0

>  <MPO_area>
74.12

>  <TPSA>
41.93

>  <logP>
1.55

$$$$

  Mrv1722703221715202D          

 29 31  0  0  0  0            999 V2000
    0.0000    0.0000    0.0000 S   0  0  0  0  0  0  0  0  0  0  0  0
    0.8026   -0.1359    0.0000 C   0  0  0  0  0  0  0  0  0  0  0  0
   -0.3948    0.7314    0.0000 C   0  0  2  0  0  0  0  0  0  0  0  0
    1.4174    0.4142    0.0000 C   0  0  0  0  0  0  0  0  0  0  0  0
    0.9579   -0.9385    0.0000 C   0  0  0  0  0  0  0  0  0  0  0  0
   -1.2233    0.6990    0.0000 C   0  0  0  0  0  0  0  0  0  0  0  0
   -0.0777    1.4951    0.0000 C   0  0  2  0  0  0  0  0  0  0  0  0
    1.3721    1.2426    0.0000 N   0  0  0  0  0  0  0  0  0  0  0  0
    2.1876    0.1553    0.0000 C   0  0  0  0  0  0  0  0  0  0  0  0
    1.7281   -1.1973    0.0000 C   0  0  0  0  0  0  0  0  0  0  0  0
   -1.6763    1.3980    0.0000 C   0  0  0  0  0  0  0  0  0  0  0  0
   -1.6051   -0.0259    0.0000 C   0  0  0  0  0  0  0  0  0  0  0  0
   -0.6278    2.1229    0.0000 O   0  0  0  0  0  0  0  0  0  0  0  0
    0.7055    1.7216    0.0000 C   0  0  0  0  0  0  0  0  0  0  0  0
    2.0905    1.6375    0.0000 C   0  0  0  0  0  0  0  0  0  0  0  0
    2.3429   -0.6472    0.0000 C   0  0  0  0  0  0  0  0  0  0  0  0
   -2.5047    1.3656    0.0000 C   0  0  0  0  0  0  0  0  0  0  0  0
   -2.4335   -0.0583    0.0000 C   0  0  0  0  0  0  0  0  0  0  0  0
   -0.3689    2.9060    0.0000 C   0  0  0  0  0  0  0  0  0  0  0  0
    0.8414    2.5371    0.0000 O   0  0  0  0  0  0  0  0  0  0  0  0
    2.7831    1.2103    0.0000 C   0  0  0  0  0  0  0  0  0  0  0  0
   -2.8866    0.6408    0.0000 C   0  0  0  0  0  0  0  0  0  0  0  0
    0.4337    3.0743    0.0000 O   0  0  0  0  0  0  0  0  0  0  0  0
   -0.9190    3.5338    0.0000 C   0  0  0  0  0  0  0  0  0  0  0  0
    3.5014    1.6051    0.0000 N   0  0  0  0  0  0  0  0  0  0  0  0
   -3.7150    0.6084    0.0000 O   0  0  0  0  0  0  0  0  0  0  0  0
    4.1940    1.1779    0.0000 C   0  0  0  0  0  0  0  0  0  0  0  0
    3.5209    2.4335    0.0000 C   0  0  0  0  0  0  0  0  0  0  0  0
   -4.1681    1.3074    0.0000 C   0  0  0  0  0  0  0  0  0  0  0  0
  1  2  1  0  0  0  0
  1  3  1  0  0  0  0
  2  4  2  0  0  0  0
  2  5  1  0  0  0  0
  3  6  1  6  0  0  0
  3  7  1  0  0  0  0
  4  8  1  0  0  0  0
  4  9  1  0  0  0  0
  5 10  2  0  0  0  0
  6 11  2  0  0  0  0
  6 12  1  0  0  0  0
  7 13  1  6  0  0  0
  7 14  1  0  0  0  0
  8 15  1  0  0  0  0
  9 16  2  0  0  0  0
 11 17  1  0  0  0  0
 12 18  2  0  0  0  0
 13 19  1  0  0  0  0
 14 20  2  0  0  0  0
 15 21  1  0  0  0  0
 17 22  2  0  0  0  0
 19 23  2  0  0  0  0
 19 24  1  0  0  0  0
 21 25  1  0  0  0  0
 22 26  1  0  0  0  0
 25 27  1  0  0  0  0
 25 28  1  0  0  0  0
 26 29  1  0  0  0  0
  8 14  1  0  0  0  0
 10 16  1  0  0  0  0
 18 22  1  0  0  0  0
M  END

>  <name>
Diltiazem

>  <ROTATABLE_BONDCOUNT>
7

>  <HBDScore>
1.0

>  <dipole>
5.76

>  <logD>
1.89

>  <MPOScore>
5.520571428571429

>  <logDScore>
1.0

>  <MW>
414.52

>  <charge_dist(7.4)>
0.86

>  <CNS>
TRUE

>  <ArRings>
2

>  <HBD>
0

>  <BALABAN_INDEX>
1.66

>  <bpKa>
8.18

>  <TPSAScore>
1.0

>  <MWScore>
0.6105714285714288

>  <bpKaScore>
0.9100000000000001

>  <logPScore>
1.0

>  <MPO_area>
84.6

>  <TPSA>
59.08

>  <logP>
2.73

$$$$

  Mrv1722703221715202D          

 21 23  0  0  0  0            999 V2000
    0.0000    0.0000    0.0000 O   0  0  0  0  0  0  0  0  0  0  0  0
   -0.8196    0.1408    0.0000 C   0  0  0  0  0  0  0  0  0  0  0  0
    0.5122    0.6467    0.0000 C   0  0  0  0  0  0  0  0  0  0  0  0
   -1.1205    0.9156    0.0000 C   0  0  0  0  0  0  0  0  0  0  0  0
   -1.3446   -0.4930    0.0000 C   0  0  0  0  0  0  0  0  0  0  0  0
    1.3190    0.5186    0.0000 C   0  0  0  0  0  0  0  0  0  0  0  0
    0.2113    1.4215    0.0000 C   0  0  0  0  0  0  0  0  0  0  0  0
   -1.9401    1.0565    0.0000 C   0  0  0  0  0  0  0  0  0  0  0  0
   -2.1642   -0.3522    0.0000 C   0  0  0  0  0  0  0  0  0  0  0  0
    1.6072   -0.2433    0.0000 C   0  0  0  0  0  0  0  0  0  0  0  0
    1.8313    1.1653    0.0000 C   0  0  0  0  0  0  0  0  0  0  0  0
    0.7235    2.0682    0.0000 C   0  0  0  0  0  0  0  0  0  0  0  0
   -0.6083    1.5623    0.0000 C   0  0  0  0  0  0  0  0  0  0  0  0
   -2.4651    0.4226    0.0000 N   0  0  0  0  0  0  0  0  0  0  0  0
    2.4139   -0.3714    0.0000 C   0  0  0  0  0  0  0  0  0  0  0  0
    2.6380    1.0373    0.0000 C   0  0  0  0  0  0  0  0  0  0  0  0
    0.4226    2.8429    0.0000 C   0  0  0  0  0  0  0  0  0  0  0  0
   -0.9092    2.3371    0.0000 C   0  0  0  0  0  0  0  0  0  0  0  0
   -3.2847    0.5635    0.0000 C   0  0  0  0  0  0  0  0  0  0  0  0
    2.9262    0.2753    0.0000 C   0  0  0  0  0  0  0  0  0  0  0  0
   -0.3970    2.9838    0.0000 C   0  0  0  0  0  0  0  0  0  0  0  0
  1  2  1  0  0  0  0
  1  3  1  0  0  0  0
  2  4  1  0  0  0  0
  2  5  1  0  0  0  0
  3  6  1  0  0  0  0
  3  7  1  0  0  0  0
  4  8  1  0  0  0  0
  5  9  1  0  0  0  0
  6 10  2  0  0  0  0
  6 11  1  0  0  0  0
  7 12  2  0  0  0  0
  7 13  1  0  0  0  0
  8 14  1  0  0  0  0
 10 15  1  0  0  0  0
 11 16  2  0  0  0  0
 12 17  1  0  0  0  0
 13 18  2  0  0  0  0
 14 19  1  0  0  0  0
 15 20  2  0  0  0  0
 17 21  2  0  0  0  0
  9 14  1  0  0  0  0
 16 20  1  0  0  0  0
 18 21  1  0  0  0  0
M  END

>  <name>
Diphenylpyraline

>  <ROTATABLE_BONDCOUNT>
4

>  <HBDScore>
1.0

>  <dipole>
2.28

>  <logD>
2.18

>  <MPOScore>
4.1450000000000005

>  <logDScore>
0.9099999999999999

>  <MW>
281.399

>  <charge_dist(7.4)>
0.97

>  <CNS>
TRUE

>  <ArRings>
2

>  <HBD>
0

>  <BALABAN_INDEX>
1.39

>  <bpKa>
8.87

>  <TPSAScore>
0.0

>  <MWScore>
1.0

>  <bpKaScore>
0.5650000000000004

>  <logPScore>
0.6699999999999999

>  <MPO_area>
48.3

>  <TPSA>
12.47

>  <logP>
3.66

$$$$

  Mrv1722703221715202D          

 16 15  0  0  0  0            999 V2000
    0.0000    0.0000    0.0000 S   0  0  0  0  0  0  0  0  0  0  0  0
    0.0642    0.8221    0.0000 C   0  0  0  0  0  0  0  0  0  0  0  0
   -0.6102    1.2974    0.0000 S   0  0  0  0  0  0  0  0  0  0  0  0
    0.8029    1.1754    0.0000 N   0  0  0  0  0  0  0  0  0  0  0  0
   -1.3617    0.9570    0.0000 S   0  0  0  0  0  0  0  0  0  0  0  0
    0.8671    1.9975    0.0000 C   0  0  0  0  0  0  0  0  0  0  0  0
    1.4644    0.7129    0.0000 C   0  0  0  0  0  0  0  0  0  0  0  0
   -2.0361    1.4323    0.0000 C   0  0  0  0  0  0  0  0  0  0  0  0
    0.1927    2.4728    0.0000 C   0  0  0  0  0  0  0  0  0  0  0  0
    1.3873   -0.0964    0.0000 C   0  0  0  0  0  0  0  0  0  0  0  0
   -1.9718    2.2544    0.0000 S   0  0  0  0  0  0  0  0  0  0  0  0
   -2.7875    1.0919    0.0000 N   0  0  0  0  0  0  0  0  0  0  0  0
   -3.4619    1.5672    0.0000 C   0  0  0  0  0  0  0  0  0  0  0  0
   -2.8646    0.2826    0.0000 C   0  0  0  0  0  0  0  0  0  0  0  0
   -4.2134    1.2268    0.0000 C   0  0  0  0  0  0  0  0  0  0  0  0
   -3.6161   -0.0578    0.0000 C   0  0  0  0  0  0  0  0  0  0  0  0
  1  2  2  0  0  0  0
  2  3  1  0  0  0  0
  2  4  1  0  0  0  0
  3  5  1  0  0  0  0
  4  6  1  0  0  0  0
  4  7  1  0  0  0  0
  5  8  1  0  0  0  0
  6  9  1  0  0  0  0
  7 10  1  0  0  0  0
  8 11  2  0  0  0  0
  8 12  1  0  0  0  0
 12 13  1  0  0  0  0
 12 14  1  0  0  0  0
 13 15  1  0  0  0  0
 14 16  1  0  0  0  0
M  END

>  <name>
Disulfiram

>  <ROTATABLE_BONDCOUNT>
7

>  <HBDScore>
1.0

>  <dipole>
0.90

>  <logD>
4.16

>  <MPOScore>
3.42

>  <logDScore>
0.0

>  <MW>
296.52

>  <charge_dist(7.4)>
0.00

>  <CNS>
TRUE

>  <ArRings>
0

>  <HBD>
0

>  <BALABAN_INDEX>
3.93

>  <bpKa>
0.0

>  <TPSAScore>
0.0

>  <MWScore>
1.0

>  <bpKaScore>
1.0

>  <logPScore>
0.41999999999999993

>  <MPO_area>
40.33

>  <TPSA>
6.48

>  <logP>
4.16

$$$$

  Mrv1722703221715202D          

 24 28  0  0  1  0            999 V2000
    0.0000    0.0000    0.0000 O   0  0  0  0  0  0  0  0  0  0  0  0
    0.8056    0.1712    0.0000 C   0  0  0  0  0  0  0  0  0  0  0  0
    1.3393   -0.4531    0.0000 C   0  0  2  0  0  0  0  0  0  0  0  0
    1.0674    0.9667    0.0000 C   0  0  0  0  0  0  0  0  0  0  0  0
    1.7722    0.6344    0.0000 C   0  0  0  0  0  0  0  0  0  0  0  0
    2.1449   -0.2819    0.0000 C   0  0  0  0  0  0  0  0  0  0  0  0
    1.8730    1.1379    0.0000 N   0  0  0  0  0  0  0  0  0  0  0  0
    2.1348    1.9233    0.0000 C   0  0  2  0  0  0  0  0  0  0  0  0
    2.4067    0.5135    0.0000 C   0  0  1  0  0  0  0  0  0  0  0  0
    2.9403    2.0945    0.0000 C   0  0  0  0  0  0  0  0  0  0  0  0
    3.2122    0.6847    0.0000 C   0  0  0  0  0  0  0  0  0  0  0  0
    3.4740    1.4701    0.0000 C   0  0  2  0  0  0  0  0  0  0  0  0
    4.2796    1.6414    0.0000 O   0  0  0  0  0  0  0  0  0  0  0  0
    4.8133    1.0170    0.0000 C   0  0  0  0  0  0  0  0  0  0  0  0
    4.5314    0.2417    0.0000 O   0  0  0  0  0  0  0  0  0  0  0  0
    5.6188    1.1882    0.0000 C   0  0  0  0  0  0  0  0  0  0  0  0
    6.2130    0.6243    0.0000 C   0  0  0  0  0  0  0  0  0  0  0  0
    5.9613    1.9535    0.0000 C   0  0  0  0  0  0  0  0  0  0  0  0
    6.9279    1.0372    0.0000 C   0  0  0  0  0  0  0  0  0  0  0  0
    6.1828   -0.2014    0.0000 C   0  0  0  0  0  0  0  0  0  0  0  0
    6.7769    1.8629    0.0000 N   0  0  0  0  0  2  0  0  0  0  0  0
    7.6328    0.6143    0.0000 C   0  0  0  0  0  0  0  0  0  0  0  0
    6.8877   -0.6243    0.0000 C   0  0  0  0  0  0  0  0  0  0  0  0
    7.6026   -0.2115    0.0000 C   0  0  0  0  0  0  0  0  0  0  0  0
  1  2  2  0  0  0  0
  2  3  1  0  0  0  0
  2  4  1  0  0  0  0
  3  5  1  1  0  0  0
  3  6  1  0  0  0  0
  4  7  1  0  0  0  0
  8  5  1  1  0  0  0
  6  9  1  0  0  0  0
  8 10  1  0  0  0  0
  9 11  1  0  0  0  0
 10 12  1  0  0  0  0
 12 13  1  1  0  0  0
 13 14  1  0  0  0  0
 14 15  2  0  0  0  0
 14 16  1  0  0  0  0
 16 17  1  0  0  0  0
 16 18  2  0  0  0  0
 17 19  2  0  0  0  0
 17 20  1  0  0  0  0
 18 21  1  0  0  0  0
 19 22  1  0  0  0  0
 20 23  2  0  0  0  0
 22 24  2  0  0  0  0
  7  8  1  0  0  0  0
  9  7  1  1  0  0  0
 11 12  1  0  0  0  0
 19 21  1  0  0  0  0
 23 24  1  0  0  0  0
M  RAD  1  21   2
M  END

>  <name>
Dolasetron

>  <ROTATABLE_BONDCOUNT>
3

>  <HBDScore>
1.0

>  <logD>
1.95

>  <MPOScore>
6.0

>  <logDScore>
1.0

>  <MW>
323.372

>  <charge_dist(7.4)>
0.22

>  <CNS>
TRUE

>  <ArRings>
2

>  <HBD>
0

>  <BALABAN_INDEX>
1.03

>  <bpKa>
6.84

>  <TPSAScore>
1.0

>  <MWScore>
1.0

>  <bpKaScore>
1.0

>  <logPScore>
1.0

>  <MPO_area>
100.0

>  <TPSA>
59.50

>  <logP>
2.06

$$$$

  Mrv1722703221715202D          

 28 31  0  0  0  0            999 V2000
    0.0000    0.0000    0.0000 O   0  0  0  0  0  0  0  0  0  0  0  0
   -0.3271    0.7570    0.0000 C   0  0  0  0  0  0  0  0  0  0  0  0
    0.0834    1.4691    0.0000 C   0  0  0  0  0  0  0  0  0  0  0  0
   -1.1291    0.9430    0.0000 C   0  0  2  0  0  0  0  0  0  0  0  0
   -0.4619    2.0914    0.0000 C   0  0  0  0  0  0  0  0  0  0  0  0
    0.8789    1.6358    0.0000 C   0  0  0  0  0  0  0  0  0  0  0  0
   -1.2125    1.7641    0.0000 C   0  0  0  0  0  0  0  0  0  0  0  0
   -1.7513    0.4106    0.0000 C   0  0  0  0  0  0  0  0  0  0  0  0
   -0.2053    2.8740    0.0000 C   0  0  0  0  0  0  0  0  0  0  0  0
    1.1355    2.4185    0.0000 C   0  0  0  0  0  0  0  0  0  0  0  0
   -2.5340    0.6800    0.0000 C   0  0  0  0  0  0  0  0  0  0  0  0
    0.5902    3.0408    0.0000 C   0  0  0  0  0  0  0  0  0  0  0  0
    1.9310    2.5853    0.0000 O   0  0  0  0  0  0  0  0  0  0  0  0
   -2.7008    1.4883    0.0000 C   0  0  0  0  0  0  0  0  0  0  0  0
   -3.1563    0.1475    0.0000 C   0  0  0  0  0  0  0  0  0  0  0  0
    0.8468    3.8234    0.0000 O   0  0  0  0  0  0  0  0  0  0  0  0
    2.4634    1.9759    0.0000 C   0  0  0  0  0  0  0  0  0  0  0  0
   -3.4834    1.7577    0.0000 C   0  0  0  0  0  0  0  0  0  0  0  0
   -3.9389    0.4170    0.0000 C   0  0  0  0  0  0  0  0  0  0  0  0
    1.6423    3.9902    0.0000 C   0  0  0  0  0  0  0  0  0  0  0  0
   -4.1057    1.2253    0.0000 N   0  0  0  0  0  0  0  0  0  0  0  0
   -4.8884    1.4947    0.0000 C   0  0  0  0  0  0  0  0  0  0  0  0
   -5.0551    2.3030    0.0000 C   0  0  0  0  0  0  0  0  0  0  0  0
   -4.4457    2.8483    0.0000 C   0  0  0  0  0  0  0  0  0  0  0  0
   -5.8378    2.5725    0.0000 C   0  0  0  0  0  0  0  0  0  0  0  0
   -4.6125    3.6567    0.0000 C   0  0  0  0  0  0  0  0  0  0  0  0
   -6.0046    3.3808    0.0000 C   0  0  0  0  0  0  0  0  0  0  0  0
   -5.3952    3.9261    0.0000 C   0  0  0  0  0  0  0  0  0  0  0  0
  1  2  2  0  0  0  0
  2  3  1  0  0  0  0
  2  4  1  0  0  0  0
  3  5  2  0  0  0  0
  3  6  1  0  0  0  0
  4  7  1  0  0  0  0
  4  8  1  1  0  0  0
  5  9  1  0  0  0  0
  6 10  2  0  0  0  0
  8 11  1  0  0  0  0
  9 12  2  0  0  0  0
 10 13  1  0  0  0  0
 11 14  1  0  0  0  0
 11 15  1  0  0  0  0
 12 16  1  0  0  0  0
 13 17  1  0  0  0  0
 14 18  1  0  0  0  0
 15 19  1  0  0  0  0
 16 20  1  0  0  0  0
 18 21  1  0  0  0  0
 21 22  1  0  0  0  0
 22 23  1  0  0  0  0
 23 24  2  0  0  0  0
 23 25  1  0  0  0  0
 24 26  1  0  0  0  0
 25 27  2  0  0  0  0
 26 28  2  0  0  0  0
  5  7  1  0  0  0  0
 10 12  1  0  0  0  0
 19 21  1  0  0  0  0
 27 28  1  0  0  0  0
M  END

>  <name>
Donepezil

>  <ROTATABLE_BONDCOUNT>
6

>  <HBDScore>
1.0

>  <dipole>
9.51

>  <logD>
3.04

>  <MPOScore>
4.4042142857142865

>  <logDScore>
0.48

>  <MW>
379.500

>  <charge_dist(7.4)>
0.93

>  <CNS>
TRUE

>  <ArRings>
2

>  <HBD>
0

>  <BALABAN_INDEX>
1.19

>  <bpKa>
8.54

>  <TPSAScore>
0.9385000000000002

>  <MWScore>
0.8607142857142858

>  <bpKaScore>
0.7300000000000004

>  <logPScore>
0.395

>  <MPO_area>
55.16

>  <TPSA>
38.77

>  <logP>
4.21

$$$$

  Mrv1722703221715202D          

 23 25  0  0  0  0            999 V2000
    0.0000    0.0000    0.0000 O   0  0  0  0  0  0  0  0  0  0  0  0
   -0.3031   -0.7674    0.0000 C   0  0  0  0  0  0  0  0  0  0  0  0
    0.8125    0.1354    0.0000 C   0  0  0  0  0  0  0  0  0  0  0  0
    0.2128   -1.4058    0.0000 C   0  0  0  0  0  0  0  0  0  0  0  0
   -1.1285   -0.8899    0.0000 C   0  0  0  0  0  0  0  0  0  0  0  0
    1.3284   -0.5030    0.0000 C   0  0  1  0  0  0  0  0  0  0  0  0
    1.5282    0.5481    0.0000 C   0  0  0  0  0  0  0  0  0  0  0  0
    0.5352    0.9286    0.0000 C   0  0  0  0  0  0  0  0  0  0  0  0
   -0.0903   -2.1731    0.0000 C   0  0  0  0  0  0  0  0  0  0  0  0
    1.0253   -1.2703    0.0000 C   0  0  1  0  0  0  0  0  0  0  0  0
   -1.4315   -1.6572    0.0000 C   0  0  0  0  0  0  0  0  0  0  0  0
    2.1409   -0.3675    0.0000 C   0  0  0  0  0  0  0  0  0  0  0  0
    0.4256   -2.8115    0.0000 O   0  0  0  0  0  0  0  0  0  0  0  0
   -0.9157   -2.2956    0.0000 C   0  0  0  0  0  0  0  0  0  0  0  0
    1.5411   -1.9087    0.0000 C   0  0  0  0  0  0  0  0  0  0  0  0
   -2.2569   -1.7797    0.0000 C   0  0  0  0  0  0  0  0  0  0  0  0
    2.6567   -1.0060    0.0000 C   0  0  0  0  0  0  0  0  0  0  0  0
    2.3536   -1.7733    0.0000 C   0  0  0  0  0  0  0  0  0  0  0  0
   -2.7857   -1.1285    0.0000 C   0  0  0  0  0  0  0  0  0  0  0  0
    2.8695   -2.4117    0.0000 C   0  0  0  0  0  0  0  0  0  0  0  0
   -3.6111   -1.2510    0.0000 C   0  0  0  0  0  0  0  0  0  0  0  0
   -4.1398   -0.5997    0.0000 C   0  0  0  0  0  0  0  0  0  0  0  0
   -4.9652   -0.7222    0.0000 C   0  0  0  0  0  0  0  0  0  0  0  0
  1  2  1  0  0  0  0
  1  3  1  0  0  0  0
  2  4  2  0  0  0  0
  2  5  1  0  0  0  0
  3  6  1  0  0  0  0
  3  7  1  0  0  0  0
  3  8  1  0  0  0  0
  4  9  1  0  0  0  0
  4 10  1  0  0  0  0
  5 11  2  0  0  0  0
  6 12  1  6  0  0  0
  9 13  1  0  0  0  0
  9 14  2  0  0  0  0
 10 15  1  1  0  0  0
 11 16  1  0  0  0  0
 12 17  1  0  0  0  0
 15 18  2  0  0  0  0
 16 19  1  0  0  0  0
 18 20  1  0  0  0  0
 19 21  1  0  0  0  0
 21 22  1  0  0  0  0
 22 23  1  0  0  0  0
  6 10  1  0  0  0  0
 11 14  1  0  0  0  0
 17 18  1  0  0  0  0
M  END

>  <name>
Dronabinol

>  <ROTATABLE_BONDCOUNT>
4

>  <HBDScore>
0.8333333333333334

>  <dipole>
0.93

>  <logD>
5.94

>  <MPOScore>
3.306333333333334

>  <logDScore>
0.0

>  <MW>
314.469

>  <charge_dist(7.4)>
-0.01

>  <CNS>
TRUE

>  <ArRings>
1

>  <HBD>
1

>  <BALABAN_INDEX>
1.65

>  <bpKa>
-4.89

>  <TPSAScore>
0.4730000000000001

>  <MWScore>
1.0

>  <bpKaScore>
1.0

>  <logPScore>
0.0

>  <MPO_area>
37.12

>  <TPSA>
29.46

>  <logP>
5.94

$$$$

  Mrv1722703221715202D          

 39 41  0  0  0  0            999 V2000
    0.0000    0.0000    0.0000 S   0  0  0  0  0  0  0  0  0  0  0  0
   -0.8241    0.0644    0.0000 O   0  0  0  0  0  0  0  0  0  0  0  0
    0.8112   -0.0515    0.0000 O   0  0  0  0  0  0  0  0  0  0  0  0
    0.0515    0.8241    0.0000 N   0  0  0  0  0  0  0  0  0  0  0  0
   -0.0644   -0.8112    0.0000 C   0  0  0  0  0  0  0  0  0  0  0  0
   -0.6309    1.2877    0.0000 C   0  0  0  0  0  0  0  0  0  0  0  0
   -1.3778    0.9336    0.0000 C   0  0  0  0  0  0  0  0  0  0  0  0
   -0.5794    2.1118    0.0000 C   0  0  0  0  0  0  0  0  0  0  0  0
   -2.0603    1.3971    0.0000 C   0  0  0  0  0  0  0  0  0  0  0  0
   -1.2619    2.5753    0.0000 C   0  0  0  0  0  0  0  0  0  0  0  0
   -2.8650    1.2104    0.0000 C   0  0  0  0  0  0  0  0  0  0  0  0
   -2.0087    2.2212    0.0000 C   0  0  0  0  0  0  0  0  0  0  0  0
   -3.3028    1.9122    0.0000 C   0  0  0  0  0  0  0  0  0  0  0  0
   -3.1805    0.4571    0.0000 C   0  0  0  0  0  0  0  0  0  0  0  0
   -2.7749    2.5367    0.0000 O   0  0  0  0  0  0  0  0  0  0  0  0
   -4.1269    1.9766    0.0000 C   0  0  0  0  0  0  0  0  0  0  0  0
   -2.6848   -0.1867    0.0000 O   0  0  0  0  0  0  0  0  0  0  0  0
   -3.9981    0.3541    0.0000 C   0  0  0  0  0  0  0  0  0  0  0  0
   -4.4939    2.7234    0.0000 C   0  0  0  0  0  0  0  0  0  0  0  0
   -4.5068    1.0108    0.0000 C   0  0  0  0  0  0  0  0  0  0  0  0
   -4.3136   -0.3992    0.0000 C   0  0  0  0  0  0  0  0  0  0  0  0
   -5.3180    2.7877    0.0000 C   0  0  0  0  0  0  0  0  0  0  0  0
   -5.3244    0.9078    0.0000 C   0  0  0  0  0  0  0  0  0  0  0  0
   -5.1313   -0.5022    0.0000 C   0  0  0  0  0  0  0  0  0  0  0  0
   -5.6850    3.5346    0.0000 C   0  0  0  0  0  0  0  0  0  0  0  0
   -5.6399    0.1545    0.0000 C   0  0  0  0  0  0  0  0  0  0  0  0
   -6.4576    0.0515    0.0000 O   0  0  0  0  0  0  0  0  0  0  0  0
   -6.9662    0.7082    0.0000 C   0  0  0  0  0  0  0  0  0  0  0  0
   -7.7838    0.6052    0.0000 C   0  0  0  0  0  0  0  0  0  0  0  0
   -8.2925    1.2619    0.0000 C   0  0  0  0  0  0  0  0  0  0  0  0
   -9.1101    1.1589    0.0000 N   0  0  0  0  0  0  0  0  0  0  0  0
   -9.6187    1.8156    0.0000 C   0  0  0  0  0  0  0  0  0  0  0  0
   -9.4256    0.4056    0.0000 C   0  0  0  0  0  0  0  0  0  0  0  0
  -10.4364    1.7126    0.0000 C   0  0  0  0  0  0  0  0  0  0  0  0
  -10.2432    0.3026    0.0000 C   0  0  0  0  0  0  0  0  0  0  0  0
  -10.9450    2.3693    0.0000 C   0  0  0  0  0  0  0  0  0  0  0  0
  -10.5587   -0.4507    0.0000 C   0  0  0  0  0  0  0  0  0  0  0  0
  -11.7627    2.2663    0.0000 C   0  0  0  0  0  0  0  0  0  0  0  0
  -11.3764   -0.5537    0.0000 C   0  0  0  0  0  0  0  0  0  0  0  0
  1  2  2  0  0  0  0
  1  3  2  0  0  0  0
  1  4  1  0  0  0  0
  1  5  1  0  0  0  0
  4  6  1  0  0  0  0
  6  7  2  0  0  0  0
  6  8  1  0  0  0  0
  7  9  1  0  0  0  0
  8 10  2  0  0  0  0
  9 11  1  0  0  0  0
  9 12  2  0  0  0  0
 11 13  2  0  0  0  0
 11 14  1  0  0  0  0
 12 15  1  0  0  0  0
 13 16  1  0  0  0  0
 14 17  2  0  0  0  0
 14 18  1  0  0  0  0
 16 19  1  0  0  0  0
 18 20  2  0  0  0  0
 18 21  1  0  0  0  0
 19 22  1  0  0  0  0
 20 23  1  0  0  0  0
 21 24  2  0  0  0  0
 22 25  1  0  0  0  0
 23 26  2  0  0  0  0
 26 27  1  0  0  0  0
 27 28  1  0  0  0  0
 28 29  1  0  0  0  0
 29 30  1  0  0  0  0
 30 31  1  0  0  0  0
 31 32  1  0  0  0  0
 31 33  1  0  0  0  0
 32 34  1  0  0  0  0
 33 35  1  0  0  0  0
 34 36  1  0  0  0  0
 35 37  1  0  0  0  0
 36 38  1  0  0  0  0
 37 39  1  0  0  0  0
 10 12  1  0  0  0  0
 13 15  1  0  0  0  0
 24 26  1  0  0  0  0
M  END

>  <name>
Dronedarone

>  <ROTATABLE_BONDCOUNT>
17

>  <HBDScore>
0.8333333333333334

>  <dipole>
6.33

>  <logD>
3.96

>  <MPOScore>
1.958333333333334

>  <logDScore>
0.020000000000000018

>  <MW>
556.76

>  <charge_dist(7.4)>
0.98

>  <CNS>
TRUE

>  <ArRings>
3

>  <HBD>
1

>  <BALABAN_INDEX>
1.44

>  <bpKa>
9.79

>  <TPSAScore>
1.0

>  <MWScore>
0.0

>  <bpKaScore>
0.10500000000000043

>  <logPScore>
0.0

>  <MPO_area>
15.38

>  <TPSA>
88.85

>  <logP>
5.28

$$$$

  Mrv1722703221715202D          

 21 23  0  0  0  0            999 V2000
    0.0000    0.0000    0.0000 S   0  0  0  0  0  0  0  0  0  0  0  0
    0.7527    0.3375    0.0000 C   0  0  0  0  0  0  0  0  0  0  0  0
    0.0714   -0.8176    0.0000 C   0  0  0  0  0  0  0  0  0  0  0  0
    1.2978   -0.2725    0.0000 C   0  0  0  0  0  0  0  0  0  0  0  0
    0.9279    1.1551    0.0000 C   0  0  1  0  0  0  0  0  0  0  0  0
    0.8761   -0.9929    0.0000 C   0  0  0  0  0  0  0  0  0  0  0  0
    1.7131    1.4081    0.0000 O   0  0  0  0  0  0  0  0  0  0  0  0
    0.3115    1.7196    0.0000 C   0  0  0  0  0  0  0  0  0  0  0  0
    2.3166    0.8565    0.0000 C   0  0  0  0  0  0  0  0  0  0  0  0
   -0.4867    1.4795    0.0000 C   0  0  0  0  0  0  0  0  0  0  0  0
    3.1018    1.1097    0.0000 C   0  0  0  0  0  0  0  0  0  0  0  0
    2.1284    0.0519    0.0000 C   0  0  0  0  0  0  0  0  0  0  0  0
   -1.1032    2.0441    0.0000 N   0  0  0  0  0  0  0  0  0  0  0  0
    3.7053    0.5581    0.0000 C   0  0  0  0  0  0  0  0  0  0  0  0
    3.2770    1.9273    0.0000 C   0  0  0  0  0  0  0  0  0  0  0  0
    2.7319   -0.4997    0.0000 C   0  0  0  0  0  0  0  0  0  0  0  0
   -1.9013    1.8040    0.0000 C   0  0  0  0  0  0  0  0  0  0  0  0
    3.5171   -0.2466    0.0000 C   0  0  0  0  0  0  0  0  0  0  0  0
    4.4904    0.8111    0.0000 C   0  0  0  0  0  0  0  0  0  0  0  0
    4.0621    2.1803    0.0000 C   0  0  0  0  0  0  0  0  0  0  0  0
    4.6657    1.6287    0.0000 C   0  0  0  0  0  0  0  0  0  0  0  0
  1  2  1  0  0  0  0
  1  3  1  0  0  0  0
  2  4  2  0  0  0  0
  2  5  1  0  0  0  0
  3  6  2  0  0  0  0
  5  7  1  6  0  0  0
  5  8  1  0  0  0  0
  7  9  1  0  0  0  0
  8 10  1  0  0  0  0
  9 11  1  0  0  0  0
  9 12  2  0  0  0  0
 10 13  1  0  0  0  0
 11 14  2  0  0  0  0
 11 15  1  0  0  0  0
 12 16  1  0  0  0  0
 13 17  1  0  0  0  0
 14 18  1  0  0  0  0
 14 19  1  0  0  0  0
 15 20  2  0  0  0  0
 19 21  2  0  0  0  0
  4  6  1  0  0  0  0
 16 18  2  0  0  0  0
 20 21  1  0  0  0  0
M  END

>  <name>
Duloxetine

>  <ROTATABLE_BONDCOUNT>
6

>  <HBDScore>
0.8333333333333334

>  <dipole>
3.20

>  <logD>
1.94

>  <MPOScore>
3.446333333333334

>  <logDScore>
1.0

>  <MW>
297.42

>  <charge_dist(7.4)>
1.00

>  <CNS>
TRUE

>  <ArRings>
3

>  <HBD>
1

>  <BALABAN_INDEX>
1.39

>  <bpKa>
9.7

>  <TPSAScore>
0.06300000000000008

>  <MWScore>
1.0

>  <bpKaScore>
0.15000000000000036

>  <logPScore>
0.3999999999999999

>  <MPO_area>
38.32

>  <TPSA>
21.26

>  <logP>
4.20

$$$$

  Mrv1722703221715202D          

 37 41  0  0  0  0            999 V2000
    0.0000    0.0000    0.0000 F   0  0  0  0  0  0  0  0  0  0  0  0
   -0.0131    0.8371    0.0000 C   0  0  0  0  0  0  0  0  0  0  0  0
   -0.8502    0.8371    0.0000 F   0  0  0  0  0  0  0  0  0  0  0  0
    0.8109    0.8502    0.0000 F   0  0  0  0  0  0  0  0  0  0  0  0
   -0.0262    1.6743    0.0000 C   0  0  0  0  0  0  0  0  0  0  0  0
    0.6802    2.0993    0.0000 C   0  0  0  0  0  0  0  0  0  0  0  0
   -0.7521    2.0928    0.0000 C   0  0  0  0  0  0  0  0  0  0  0  0
    1.3930    1.6938    0.0000 N   0  0  0  0  0  0  0  0  0  0  0  0
    0.6671    2.9364    0.0000 C   0  0  0  0  0  0  0  0  0  0  0  0
   -0.7652    2.9299    0.0000 C   0  0  0  0  0  0  0  0  0  0  0  0
    2.0993    2.1190    0.0000 C   0  0  0  0  0  0  0  0  0  0  0  0
   -0.0589    3.3550    0.0000 C   0  0  0  0  0  0  0  0  0  0  0  0
    2.0863    2.9561    0.0000 O   0  0  0  0  0  0  0  0  0  0  0  0
    2.8122    1.7135    0.0000 C   0  0  1  0  0  0  0  0  0  0  0  0
   -0.0719    4.1922    0.0000 C   0  0  0  0  0  0  0  0  0  0  0  0
    3.5643    2.0666    0.0000 C   0  0  1  0  0  0  0  0  0  0  0  0
    2.8972    0.8960    0.0000 C   0  0  0  0  0  0  0  0  0  0  0  0
   -0.0850    5.0293    0.0000 F   0  0  0  0  0  0  0  0  0  0  0  0
    0.7521    4.2052    0.0000 F   0  0  0  0  0  0  0  0  0  0  0  0
   -0.9091    4.1922    0.0000 F   0  0  0  0  0  0  0  0  0  0  0  0
    4.1202    1.4584    0.0000 C   0  0  2  0  0  0  0  0  0  0  0  0
    3.8063    2.8645    0.0000 C   0  0  0  0  0  0  0  0  0  0  0  0
    2.9364    2.6226    0.0000 C   0  0  0  0  0  0  0  0  0  0  0  0
    3.7016    0.7390    0.0000 C   0  0  0  0  0  0  0  0  0  0  0  0
    4.9246    1.6415    0.0000 C   0  0  2  0  0  0  0  0  0  0  0  0
    4.6107    3.0476    0.0000 C   0  0  0  0  0  0  0  0  0  0  0  0
    5.1666    2.4394    0.0000 C   0  0  1  0  0  0  0  0  0  0  0  0
    5.4805    1.0333    0.0000 C   0  0  0  0  0  0  0  0  0  0  0  0
    5.9710    2.6226    0.0000 C   0  0  2  0  0  0  0  0  0  0  0  0
    6.2849    1.2164    0.0000 C   0  0  0  0  0  0  0  0  0  0  0  0
    6.2130    3.4204    0.0000 C   0  0  0  0  0  0  0  0  0  0  0  0
    6.5269    2.0143    0.0000 C   0  0  2  0  0  0  0  0  0  0  0  0
    5.4021    3.2439    0.0000 C   0  0  0  0  0  0  0  0  0  0  0  0
    7.0174    3.6036    0.0000 C   0  0  0  0  0  0  0  0  0  0  0  0
    7.3314    2.1974    0.0000 N   0  0  0  0  0  0  0  0  0  0  0  0
    7.5733    2.9953    0.0000 C   0  0  0  0  0  0  0  0  0  0  0  0
    8.3777    3.1784    0.0000 O   0  0  0  0  0  0  0  0  0  0  0  0
  1  2  1  0  0  0  0
  2  3  1  0  0  0  0
  2  4  1  0  0  0  0
  2  5  1  0  0  0  0
  5  6  2  0  0  0  0
  5  7  1  0  0  0  0
  6  8  1  0  0  0  0
  6  9  1  0  0  0  0
  7 10  2  0  0  0  0
  8 11  1  0  0  0  0
  9 12  2  0  0  0  0
 11 13  2  0  0  0  0
 14 11  1  1  0  0  0
 12 15  1  0  0  0  0
 14 16  1  0  0  0  0
 14 17  1  0  0  0  0
 15 18  1  0  0  0  0
 15 19  1  0  0  0  0
 15 20  1  0  0  0  0
 16 21  1  0  0  0  0
 16 22  1  0  0  0  0
 16 23  1  1  0  0  0
 17 24  1  0  0  0  0
 21 25  1  0  0  0  0
 22 26  1  0  0  0  0
 25 27  1  0  0  0  0
 25 28  1  6  0  0  0
 27 29  1  0  0  0  0
 28 30  1  0  0  0  0
 29 31  1  0  0  0  0
 29 32  1  0  0  0  0
 29 33  1  1  0  0  0
 31 34  2  0  0  0  0
 32 35  1  1  0  0  0
 34 36  1  0  0  0  0
 36 37  2  0  0  0  0
 10 12  1  0  0  0  0
 21 24  1  1  0  0  0
 27 26  1  1  0  0  0
 30 32  1  0  0  0  0
 35 36  1  0  0  0  0
M  END

>  <name>
Dutasteride

>  <ROTATABLE_BONDCOUNT>
4

>  <HBDScore>
0.5

>  <dipole>
5.24

>  <logD>
5.79

>  <MPOScore>
2.5

>  <logDScore>
0.0

>  <MW>
528.539

>  <charge_dist(7.4)>
-0.00

>  <CNS>
TRUE

>  <ArRings>
1

>  <HBD>
2

>  <BALABAN_INDEX>
1.15

>  <bpKa>
-0.16

>  <TPSAScore>
1.0

>  <MWScore>
0.0

>  <bpKaScore>
1.0

>  <logPScore>
0.0

>  <MPO_area>
25.0

>  <TPSA>
58.20

>  <logP>
5.79

$$$$

  Mrv1722703221715202D          

 21 23  0  0  0  0            999 V2000
    0.0000    0.0000    0.0000 Cl  0  0  0  0  0  0  0  0  0  0  0  0
   -0.2842   -0.7621    0.0000 C   0  0  0  0  0  0  0  0  0  0  0  0
   -1.0980   -0.8977    0.0000 C   0  0  0  0  0  0  0  0  0  0  0  0
    0.2390   -1.3821    0.0000 C   0  0  0  0  0  0  0  0  0  0  0  0
   -1.3821   -1.6598    0.0000 C   0  0  0  0  0  0  0  0  0  0  0  0
   -0.0452   -2.1442    0.0000 C   0  0  0  0  0  0  0  0  0  0  0  0
   -0.8590   -2.2799    0.0000 C   0  0  0  0  0  0  0  0  0  0  0  0
   -2.1959   -1.7954    0.0000 C   0  0  2  0  0  0  0  0  0  0  0  0
   -1.1431   -3.0420    0.0000 N   0  0  0  0  0  0  0  0  0  0  0  0
   -2.4800   -2.5575    0.0000 O   0  0  0  0  0  0  0  0  0  0  0  0
   -3.0096   -1.6469    0.0000 C   0  0  0  0  0  0  0  0  0  0  0  0
   -2.2023   -0.9687    0.0000 C   0  0  0  0  0  0  0  0  0  0  0  0
   -1.9569   -3.1776    0.0000 C   0  0  0  0  0  0  0  0  0  0  0  0
   -3.8234   -1.4983    0.0000 C   0  0  0  0  0  0  0  0  0  0  0  0
   -2.2088   -0.1421    0.0000 F   0  0  0  0  0  0  0  0  0  0  0  0
   -3.0290   -0.9623    0.0000 F   0  0  0  0  0  0  0  0  0  0  0  0
   -1.5630   -0.8009    0.0000 F   0  0  0  0  0  0  0  0  0  0  0  0
   -2.2411   -3.9397    0.0000 O   0  0  0  0  0  0  0  0  0  0  0  0
   -4.6372   -1.3498    0.0000 C   0  0  0  0  0  0  0  0  0  0  0  0
   -5.4122   -1.6211    0.0000 C   0  0  0  0  0  0  0  0  0  0  0  0
   -5.2701   -0.8138    0.0000 C   0  0  0  0  0  0  0  0  0  0  0  0
  1  2  1  0  0  0  0
  2  3  2  0  0  0  0
  2  4  1  0  0  0  0
  3  5  1  0  0  0  0
  4  6  2  0  0  0  0
  5  7  2  0  0  0  0
  5  8  1  0  0  0  0
  7  9  1  0  0  0  0
  8 10  1  0  0  0  0
  8 11  1  6  0  0  0
  8 12  1  0  0  0  0
  9 13  1  0  0  0  0
 11 14  3  0  0  0  0
 12 15  1  0  0  0  0
 12 16  1  0  0  0  0
 12 17  1  0  0  0  0
 13 18  2  0  0  0  0
 14 19  1  0  0  0  0
 19 20  1  0  0  0  0
 19 21  1  0  0  0  0
  6  7  1  0  0  0  0
 10 13  1  0  0  0  0
 20 21  1  0  0  0  0
M  END

>  <name>
Efavirenz

>  <ROTATABLE_BONDCOUNT>
3

>  <HBDScore>
0.8333333333333334

>  <dipole>
3.95

>  <logD>
4.46

>  <MPOScore>
4.019833333333334

>  <logDScore>
0.0

>  <MW>
315.68

>  <charge_dist(7.4)>
-0.00

>  <CNS>
TRUE

>  <ArRings>
1

>  <HBD>
1

>  <BALABAN_INDEX>
1.64

>  <bpKa>
-1.49

>  <TPSAScore>
0.9165

>  <MWScore>
1.0

>  <bpKaScore>
1.0

>  <logPScore>
0.27

>  <MPO_area>
48.42

>  <TPSA>
38.33

>  <logP>
4.46

$$$$

  Mrv1722703221715202D          

 27 30  0  0  0  0            999 V2000
    0.0000    0.0000    0.0000 S   0  0  0  0  0  0  0  0  0  0  0  0
   -0.3902    0.7415    0.0000 O   0  0  0  0  0  0  0  0  0  0  0  0
    0.3772   -0.7285    0.0000 O   0  0  0  0  0  0  0  0  0  0  0  0
   -0.7415   -0.3772    0.0000 C   0  0  0  0  0  0  0  0  0  0  0  0
    0.7285    0.3902    0.0000 C   0  0  0  0  0  0  0  0  0  0  0  0
   -1.4439    0.0715    0.0000 C   0  0  0  0  0  0  0  0  0  0  0  0
   -0.7805   -1.1967    0.0000 C   0  0  0  0  0  0  0  0  0  0  0  0
    1.4179   -0.0455    0.0000 C   0  0  0  0  0  0  0  0  0  0  0  0
   -2.1854   -0.3057    0.0000 C   0  0  0  0  0  0  0  0  0  0  0  0
   -1.5220   -1.5740    0.0000 C   0  0  0  0  0  0  0  0  0  0  0  0
    2.1464    0.3447    0.0000 C   0  0  0  0  0  0  0  0  0  0  0  0
   -2.2309   -1.1252    0.0000 C   0  0  0  0  0  0  0  0  0  0  0  0
    2.8358   -0.0911    0.0000 C   0  0  0  0  0  0  0  0  0  0  0  0
    2.1789    1.1772    0.0000 C   0  0  0  0  0  0  0  0  0  0  0  0
    3.5643    0.2992    0.0000 C   0  0  0  0  0  0  0  0  0  0  0  0
    2.9073    1.5675    0.0000 C   0  0  0  0  0  0  0  0  0  0  0  0
    3.5903    1.1317    0.0000 C   0  0  0  0  0  0  0  0  0  0  0  0
    4.3318    0.0195    0.0000 C   0  0  0  0  0  0  0  0  0  0  0  0
    4.3773    1.3594    0.0000 N   0  0  0  0  0  2  0  0  0  0  0  0
    4.8391    0.6764    0.0000 C   0  0  0  0  0  0  0  0  0  0  0  0
    4.5464   -0.7675    0.0000 C   0  0  0  0  0  0  0  0  0  0  0  0
    5.3399   -0.9691    0.0000 C   0  0  2  0  0  0  0  0  0  0  0  0
    5.9708   -0.4358    0.0000 N   0  0  0  0  0  0  0  0  0  0  0  0
    5.6391   -1.7301    0.0000 C   0  0  0  0  0  0  0  0  0  0  0  0
    6.6602   -0.8716    0.0000 C   0  0  0  0  0  0  0  0  0  0  0  0
    5.9122    0.3968    0.0000 C   0  0  0  0  0  0  0  0  0  0  0  0
    6.4586   -1.6715    0.0000 C   0  0  0  0  0  0  0  0  0  0  0  0
  1  2  2  0  0  0  0
  1  3  2  0  0  0  0
  1  4  1  0  0  0  0
  1  5  1  0  0  0  0
  4  6  2  0  0  0  0
  4  7  1  0  0  0  0
  5  8  1  0  0  0  0
  6  9  1  0  0  0  0
  7 10  2  0  0  0  0
  8 11  1  0  0  0  0
  9 12  2  0  0  0  0
 11 13  2  0  0  0  0
 11 14  1  0  0  0  0
 13 15  1  0  0  0  0
 14 16  2  0  0  0  0
 15 17  2  0  0  0  0
 15 18  1  0  0  0  0
 17 19  1  0  0  0  0
 18 20  2  0  0  0  0
 18 21  1  0  0  0  0
 22 21  1  6  0  0  0
 22 23  1  0  0  0  0
 22 24  1  0  0  0  0
 23 25  1  0  0  0  0
 23 26  1  0  0  0  0
 24 27  1  0  0  0  0
 10 12  1  0  0  0  0
 16 17  1  0  0  0  0
 19 20  1  0  0  0  0
 25 27  1  0  0  0  0
M  RAD  1  19   2
M  END

>  <name>
Eletriptan

>  <ROTATABLE_BONDCOUNT>
6

>  <HBDScore>
1.0

>  <logD>
2.78

>  <MPOScore>
5.191357142857143

>  <logDScore>
0.6100000000000001

>  <MW>
381.51

>  <charge_dist(7.4)>
0.81

>  <CNS>
TRUE

>  <ArRings>
3

>  <HBD>
0

>  <BALABAN_INDEX>
1.28

>  <bpKa>
8.03

>  <TPSAScore>
1.0

>  <MWScore>
0.8463571428571429

>  <bpKaScore>
0.9850000000000003

>  <logPScore>
0.75

>  <MPO_area>
75.35

>  <TPSA>
50.27

>  <logP>
3.50

$$$$

  Mrv1722703221715202D          

 29 31  0  0  0  0            999 V2000
    0.0000    0.0000    0.0000 O   0  0  0  0  0  0  0  0  0  0  0  0
   -0.0652   -0.8214    0.0000 C   0  0  0  0  0  0  0  0  0  0  0  0
   -0.8148   -1.1799    0.0000 N   0  0  0  0  0  0  0  0  0  0  0  0
    0.6128   -1.2776    0.0000 C   0  0  0  0  0  0  0  0  0  0  0  0
   -1.5058   -0.7105    0.0000 C   0  0  1  0  0  0  0  0  0  0  0  0
    1.3494   -0.9061    0.0000 C   0  0  0  0  0  0  0  0  0  0  0  0
   -2.2555   -1.0691    0.0000 C   0  0  2  0  0  0  0  0  0  0  0  0
   -1.4537    0.1238    0.0000 C   0  0  0  0  0  0  0  0  0  0  0  0
    2.0273   -1.3624    0.0000 C   0  0  0  0  0  0  0  0  0  0  0  0
   -2.9464   -0.5997    0.0000 O   0  0  0  0  0  0  0  0  0  0  0  0
   -2.3207   -1.8904    0.0000 C   0  0  0  0  0  0  0  0  0  0  0  0
   -2.1446    0.5932    0.0000 N   0  0  0  0  0  0  0  0  0  0  0  0
    2.7639   -0.9909    0.0000 C   0  0  0  0  0  0  0  0  0  0  0  0
   -1.6427   -2.3467    0.0000 C   0  0  0  0  0  0  0  0  0  0  0  0
   -3.0703   -2.2490    0.0000 C   0  0  0  0  0  0  0  0  0  0  0  0
   -2.1772    1.4276    0.0000 C   0  0  0  0  0  0  0  0  0  0  0  0
   -2.9269    0.3194    0.0000 C   0  0  0  0  0  0  0  0  0  0  0  0
    3.4419   -1.4471    0.0000 C   0  0  0  0  0  0  0  0  0  0  0  0
   -1.7079   -3.1681    0.0000 C   0  0  0  0  0  0  0  0  0  0  0  0
   -3.1355   -3.0703    0.0000 C   0  0  0  0  0  0  0  0  0  0  0  0
   -2.9791    1.6622    0.0000 C   0  0  0  0  0  0  0  0  0  0  0  0
   -3.4419    0.9778    0.0000 C   0  0  0  0  0  0  0  0  0  0  0  0
    4.1785   -1.0756    0.0000 C   0  0  0  0  0  0  0  0  0  0  0  0
   -1.0300   -3.6244    0.0000 O   0  0  0  0  0  0  0  0  0  0  0  0
   -2.4576   -3.5266    0.0000 C   0  0  0  0  0  0  0  0  0  0  0  0
    4.8564   -1.5319    0.0000 C   0  0  0  0  0  0  0  0  0  0  0  0
   -1.0951   -4.4458    0.0000 C   0  0  0  0  0  0  0  0  0  0  0  0
   -2.5227   -4.3480    0.0000 O   0  0  0  0  0  0  0  0  0  0  0  0
   -1.8448   -4.8043    0.0000 C   0  0  0  0  0  0  0  0  0  0  0  0
  1  2  2  0  0  0  0
  2  3  1  0  0  0  0
  2  4  1  0  0  0  0
  5  3  1  1  0  0  0
  4  6  1  0  0  0  0
  5  7  1  0  0  0  0
  5  8  1  0  0  0  0
  6  9  1  0  0  0  0
  7 10  1  1  0  0  0
  7 11  1  0  0  0  0
  8 12  1  0  0  0  0
  9 13  1  0  0  0  0
 11 14  2  0  0  0  0
 11 15  1  0  0  0  0
 12 16  1  0  0  0  0
 12 17  1  0  0  0  0
 13 18  1  0  0  0  0
 14 19  1  0  0  0  0
 15 20  2  0  0  0  0
 16 21  1  0  0  0  0
 17 22  1  0  0  0  0
 18 23  1  0  0  0  0
 19 24  1  0  0  0  0
 19 25  2  0  0  0  0
 23 26  1  0  0  0  0
 24 27  1  0  0  0  0
 25 28  1  0  0  0  0
 27 29  1  0  0  0  0
 20 25  1  0  0  0  0
 21 22  1  0  0  0  0
 28 29  1  0  0  0  0
M  END

>  <name>
Eliglustat

>  <ROTATABLE_BONDCOUNT>
11

>  <HBDScore>
0.5

>  <dipole>
6.21

>  <logD>
2.37

>  <MPOScore>
4.806778571428572

>  <logDScore>
0.815

>  <MW>
404.551

>  <charge_dist(7.4)>
0.85

>  <CNS>
TRUE

>  <ArRings>
1

>  <HBD>
2

>  <BALABAN_INDEX>
1.36

>  <bpKa>
8.17

>  <TPSAScore>
1.0

>  <MWScore>
0.6817785714285716

>  <bpKaScore>
0.915

>  <logPScore>
0.895

>  <MPO_area>
64.33

>  <TPSA>
71.03

>  <logP>
3.21

$$$$

  Mrv1722703221715202D          

 22 22  0  0  0  0            999 V2000
    0.0000    0.0000    0.0000 O   0  0  0  0  0  0  0  0  0  0  0  0
   -0.7219   -0.3932    0.0000 N   0  3  0  0  0  0  0  0  0  0  0  0
   -0.7348   -1.2053    0.0000 O   0  5  0  0  0  0  0  0  0  0  0  0
   -1.4309    0.0322    0.0000 C   0  0  0  0  0  0  0  0  0  0  0  0
   -1.4309    0.8572    0.0000 C   0  0  0  0  0  0  0  0  0  0  0  0
   -2.1528   -0.3610    0.0000 C   0  0  0  0  0  0  0  0  0  0  0  0
   -0.7219    1.2633    0.0000 O   0  0  0  0  0  0  0  0  0  0  0  0
   -2.1399    1.2826    0.0000 C   0  0  0  0  0  0  0  0  0  0  0  0
   -2.8618    0.0644    0.0000 C   0  0  0  0  0  0  0  0  0  0  0  0
   -2.1399    2.1077    0.0000 O   0  0  0  0  0  0  0  0  0  0  0  0
   -2.8618    0.8895    0.0000 C   0  0  0  0  0  0  0  0  0  0  0  0
   -3.5836   -0.3287    0.0000 C   0  0  0  0  0  0  0  0  0  0  0  0
   -4.2926    0.0967    0.0000 C   0  0  0  0  0  0  0  0  0  0  0  0
   -4.2926    0.9217    0.0000 C   0  0  0  0  0  0  0  0  0  0  0  0
   -5.0145   -0.2965    0.0000 C   0  0  0  0  0  0  0  0  0  0  0  0
   -4.2926    1.7467    0.0000 N   0  0  0  0  0  0  0  0  0  0  0  0
   -5.0274   -1.1086    0.0000 O   0  0  0  0  0  0  0  0  0  0  0  0
   -5.7235    0.1289    0.0000 N   0  0  0  0  0  0  0  0  0  0  0  0
   -6.4454   -0.2643    0.0000 C   0  0  0  0  0  0  0  0  0  0  0  0
   -5.7235    0.9539    0.0000 C   0  0  0  0  0  0  0  0  0  0  0  0
   -7.1544    0.1611    0.0000 C   0  0  0  0  0  0  0  0  0  0  0  0
   -6.4325    1.3793    0.0000 C   0  0  0  0  0  0  0  0  0  0  0  0
  1  2  2  0  0  0  0
  2  3  1  0  0  0  0
  2  4  1  0  0  0  0
  4  5  2  0  0  0  0
  4  6  1  0  0  0  0
  5  7  1  0  0  0  0
  5  8  1  0  0  0  0
  6  9  2  0  0  0  0
  8 10  1  0  0  0  0
  8 11  2  0  0  0  0
  9 12  1  0  0  0  0
 12 13  2  0  0  0  0
 13 14  1  0  0  0  0
 13 15  1  0  0  0  0
 14 16  3  0  0  0  0
 15 17  2  0  0  0  0
 15 18  1  0  0  0  0
 18 19  1  0  0  0  0
 18 20  1  0  0  0  0
 19 21  1  0  0  0  0
 20 22  1  0  0  0  0
  9 11  1  0  0  0  0
M  CHG  2   2   1   3  -1
M  END

>  <name>
Entacapone

>  <ROTATABLE_BONDCOUNT>
5

>  <HBDScore>
0.5

>  <dipole>
12.37

>  <logD>
0.27

>  <MPOScore>
4.5

>  <logDScore>
1.0

>  <MW>
305.290

>  <charge_dist(7.4)>
-0.97

>  <CNS>
TRUE

>  <ArRings>
1

>  <HBD>
2

>  <BALABAN_INDEX>
2.70

>  <bpKa>
-1.07

>  <TPSAScore>
0.0

>  <MWScore>
1.0

>  <bpKaScore>
1.0

>  <logPScore>
1.0

>  <MPO_area>
58.33

>  <TPSA>
127.70

>  <logP>
1.63

$$$$

  Mrv1722703221715202D          

 32 34  0  0  0  0            999 V2000
    0.0000    0.0000    0.0000 S   0  0  0  0  0  0  0  0  0  0  0  0
   -0.0906    0.8284    0.0000 C   0  0  0  0  0  0  0  0  0  0  0  0
   -0.8090    1.2490    0.0000 N   0  0  0  0  0  0  0  0  0  0  0  0
    0.5178    1.3850    0.0000 N   0  0  0  0  0  0  0  0  0  0  0  0
   -1.5727    0.9255    0.0000 C   0  0  0  0  0  0  0  0  0  0  0  0
   -0.6407    2.0645    0.0000 C   0  0  0  0  0  0  0  0  0  0  0  0
    1.3203    1.2167    0.0000 C   0  0  0  0  0  0  0  0  0  0  0  0
    0.1812    2.1486    0.0000 C   0  0  0  0  0  0  0  0  0  0  0  0
   -2.2457    1.4173    0.0000 C   0  0  0  0  0  0  0  0  0  0  0  0
   -1.6697    0.1100    0.0000 C   0  0  0  0  0  0  0  0  0  0  0  0
   -1.1973    2.6858    0.0000 O   0  0  0  0  0  0  0  0  0  0  0  0
    1.8703    1.8315    0.0000 C   0  0  0  0  0  0  0  0  0  0  0  0
    1.5662    0.4336    0.0000 C   0  0  0  0  0  0  0  0  0  0  0  0
    0.0064    2.9641    0.0000 C   0  0  0  0  0  0  0  0  0  0  0  0
    0.9643    2.4075    0.0000 C   0  0  0  0  0  0  0  0  0  0  0  0
   -3.0094    1.0937    0.0000 C   0  0  0  0  0  0  0  0  0  0  0  0
   -2.4334   -0.2136    0.0000 C   0  0  0  0  0  0  0  0  0  0  0  0
    2.6728    1.6632    0.0000 C   0  0  0  0  0  0  0  0  0  0  0  0
    2.3687    0.2654    0.0000 C   0  0  0  0  0  0  0  0  0  0  0  0
   -3.1065    0.2783    0.0000 C   0  0  0  0  0  0  0  0  0  0  0  0
   -3.6824    1.5856    0.0000 C   0  0  0  0  0  0  0  0  0  0  0  0
    3.2229    2.2780    0.0000 F   0  0  0  0  0  0  0  0  0  0  0  0
    2.9188    0.8802    0.0000 C   0  0  0  0  0  0  0  0  0  0  0  0
   -3.8701   -0.0453    0.0000 C   0  0  0  0  0  0  0  0  0  0  0  0
   -4.3555    2.0775    0.0000 F   0  0  0  0  0  0  0  0  0  0  0  0
   -3.2035    2.2586    0.0000 F   0  0  0  0  0  0  0  0  0  0  0  0
   -4.1743    0.9255    0.0000 F   0  0  0  0  0  0  0  0  0  0  0  0
    3.7213    0.7119    0.0000 C   0  0  0  0  0  0  0  0  0  0  0  0
   -4.6338   -0.3689    0.0000 N   0  0  0  0  0  0  0  0  0  0  0  0
    4.2713    1.3267    0.0000 O   0  0  0  0  0  0  0  0  0  0  0  0
    3.9672   -0.0712    0.0000 N   0  0  0  0  0  0  0  0  0  0  0  0
    4.7697   -0.2394    0.0000 C   0  0  0  0  0  0  0  0  0  0  0  0
  1  2  2  0  0  0  0
  2  3  1  0  0  0  0
  2  4  1  0  0  0  0
  3  5  1  0  0  0  0
  3  6  1  0  0  0  0
  4  7  1  0  0  0  0
  4  8  1  0  0  0  0
  5  9  2  0  0  0  0
  5 10  1  0  0  0  0
  6 11  2  0  0  0  0
  7 12  2  0  0  0  0
  7 13  1  0  0  0  0
  8 14  1  0  0  0  0
  8 15  1  0  0  0  0
  9 16  1  0  0  0  0
 10 17  2  0  0  0  0
 12 18  1  0  0  0  0
 13 19  2  0  0  0  0
 16 20  2  0  0  0  0
 16 21  1  0  0  0  0
 18 22  1  0  0  0  0
 18 23  2  0  0  0  0
 20 24  1  0  0  0  0
 21 25  1  0  0  0  0
 21 26  1  0  0  0  0
 21 27  1  0  0  0  0
 23 28  1  0  0  0  0
 24 29  3  0  0  0  0
 28 30  2  0  0  0  0
 28 31  1  0  0  0  0
 31 32  1  0  0  0  0
  6  8  1  0  0  0  0
 17 20  1  0  0  0  0
 19 23  1  0  0  0  0
M  END

>  <name>
Enzalutamide

>  <ROTATABLE_BONDCOUNT>
4

>  <HBDScore>
0.8333333333333334

>  <dipole>
3.52

>  <logD>
4.16

>  <MPOScore>
3.5073333333333334

>  <logDScore>
0.0

>  <MW>
464.44

>  <charge_dist(7.4)>
-0.00

>  <CNS>
TRUE

>  <ArRings>
2

>  <HBD>
1

>  <BALABAN_INDEX>
1.68

>  <bpKa>
-1.55

>  <TPSAScore>
1.0

>  <MWScore>
0.254

>  <bpKaScore>
1.0

>  <logPScore>
0.41999999999999993

>  <MPO_area>
38.17

>  <TPSA>
76.44

>  <logP>
4.16

$$$$

  Mrv1722703221715202D          

 29 31  0  0  0  0            999 V2000
    0.0000    0.0000    0.0000 O   0  0  0  0  0  0  0  0  0  0  0  0
    0.7990   -0.1902    0.0000 C   0  0  0  0  0  0  0  0  0  0  0  0
   -0.5770   -0.5898    0.0000 C   0  0  0  0  0  0  0  0  0  0  0  0
    1.3634    0.4122    0.0000 C   0  0  0  0  0  0  0  0  0  0  0  0
    1.0273   -0.9829    0.0000 C   0  0  0  0  0  0  0  0  0  0  0  0
   -1.3888   -0.3868    0.0000 C   0  0  0  0  0  0  0  0  0  0  0  0
    1.1224    1.2176    0.0000 O   0  0  0  0  0  0  0  0  0  0  0  0
    2.1624    0.2220    0.0000 C   0  0  0  0  0  0  0  0  0  0  0  0
    1.8263   -1.1731    0.0000 C   0  0  0  0  0  0  0  0  0  0  0  0
   -1.9658   -0.9765    0.0000 O   0  0  0  0  0  0  0  0  0  0  0  0
    1.6868    1.8199    0.0000 C   0  0  0  0  0  0  0  0  0  0  0  0
    2.3906   -0.5707    0.0000 C   0  0  0  0  0  0  0  0  0  0  0  0
    2.0482   -1.9658    0.0000 N   0  0  0  0  0  0  0  0  0  0  0  0
   -2.7775   -0.7736    0.0000 C   0  0  0  0  0  0  0  0  0  0  0  0
    1.4458    2.6253    0.0000 C   0  0  0  0  0  0  0  0  0  0  0  0
    3.1897   -0.7610    0.0000 C   0  0  0  0  0  0  0  0  0  0  0  0
    2.8472   -2.1560    0.0000 C   0  0  0  0  0  0  0  0  0  0  0  0
    2.0102    3.2277    0.0000 O   0  0  0  0  0  0  0  0  0  0  0  0
    3.4180   -1.5536    0.0000 N   0  0  0  0  0  0  0  0  0  0  0  0
    3.7541   -0.1585    0.0000 N   0  0  0  0  0  0  0  0  0  0  0  0
    1.7693    4.0331    0.0000 C   0  0  0  0  0  0  0  0  0  0  0  0
    4.5531   -0.3487    0.0000 C   0  0  0  0  0  0  0  0  0  0  0  0
    5.1174    0.2536    0.0000 C   0  0  0  0  0  0  0  0  0  0  0  0
    4.7814   -1.1415    0.0000 C   0  0  0  0  0  0  0  0  0  0  0  0
    5.9164    0.0634    0.0000 C   0  0  0  0  0  0  0  0  0  0  0  0
    5.5803   -1.3317    0.0000 C   0  0  0  0  0  0  0  0  0  0  0  0
    6.4808    0.6658    0.0000 C   0  0  0  0  0  0  0  0  0  0  0  0
    6.1447   -0.7292    0.0000 C   0  0  0  0  0  0  0  0  0  0  0  0
    7.0452    1.2683    0.0000 C   0  0  0  0  0  0  0  0  0  0  0  0
  1  2  1  0  0  0  0
  1  3  1  0  0  0  0
  2  4  2  0  0  0  0
  2  5  1  0  0  0  0
  3  6  1  0  0  0  0
  4  7  1  0  0  0  0
  4  8  1  0  0  0  0
  5  9  2  0  0  0  0
  6 10  1  0  0  0  0
  7 11  1  0  0  0  0
  8 12  2  0  0  0  0
  9 13  1  0  0  0  0
 10 14  1  0  0  0  0
 11 15  1  0  0  0  0
 12 16  1  0  0  0  0
 13 17  2  0  0  0  0
 15 18  1  0  0  0  0
 16 19  2  0  0  0  0
 16 20  1  0  0  0  0
 18 21  1  0  0  0  0
 20 22  1  0  0  0  0
 22 23  2  0  0  0  0
 22 24  1  0  0  0  0
 23 25  1  0  0  0  0
 24 26  2  0  0  0  0
 25 27  1  0  0  0  0
 25 28  2  0  0  0  0
 27 29  3  0  0  0  0
  9 12  1  0  0  0  0
 17 19  1  0  0  0  0
 26 28  1  0  0  0  0
M  END

>  <name>
Erlotinib

>  <ROTATABLE_BONDCOUNT>
10

>  <HBDScore>
0.8333333333333334

>  <dipole>
7.67

>  <logD>
3.20

>  <MPOScore>
4.894454761904762

>  <logDScore>
0.3999999999999999

>  <MW>
393.443

>  <charge_dist(7.4)>
0.00

>  <CNS>
TRUE

>  <ArRings>
3

>  <HBD>
1

>  <BALABAN_INDEX>
1.44

>  <bpKa>
4.62

>  <TPSAScore>
1.0

>  <MWScore>
0.7611214285714287

>  <bpKaScore>
1.0

>  <logPScore>
0.8999999999999999

>  <MPO_area>
66.48

>  <TPSA>
74.73

>  <logP>
3.20

$$$$

  Mrv1722703221715202D          

 27 30  0  0  0  0            999 V2000
    0.0000    0.0000    0.0000 Cl  0  0  0  0  0  0  0  0  0  0  0  0
    0.1232    0.8235    0.0000 C   0  0  0  0  0  0  0  0  0  0  0  0
   -0.5252    1.3487    0.0000 C   0  0  0  0  0  0  0  0  0  0  0  0
    0.8883    1.1218    0.0000 C   0  0  0  0  0  0  0  0  0  0  0  0
   -0.4020    2.1722    0.0000 N   0  0  0  0  0  0  0  0  0  0  0  0
    1.0115    1.9453    0.0000 C   0  0  0  0  0  0  0  0  0  0  0  0
    0.3631    2.4705    0.0000 C   0  0  0  0  0  0  0  0  0  0  0  0
    0.4863    3.2940    0.0000 N   0  0  0  0  0  0  0  0  0  0  0  0
   -0.1037    3.8841    0.0000 C   0  0  0  0  0  0  0  0  0  0  0  0
    1.2126    3.6701    0.0000 C   0  0  1  0  0  0  0  0  0  0  0  0
   -0.9272    3.7609    0.0000 O   0  0  0  0  0  0  0  0  0  0  0  0
    0.2659    4.6233    0.0000 C   0  0  0  0  0  0  0  0  0  0  0  0
    1.9388    3.3005    0.0000 O   0  0  0  0  0  0  0  0  0  0  0  0
    1.0764    4.4936    0.0000 C   0  0  0  0  0  0  0  0  0  0  0  0
   -0.0324    5.4014    0.0000 N   0  0  0  0  0  0  0  0  0  0  0  0
    2.6261    3.7544    0.0000 C   0  0  0  0  0  0  0  0  0  0  0  0
    1.5886    5.1420    0.0000 N   0  0  0  0  0  0  0  0  0  0  0  0
    0.4798    6.0498    0.0000 C   0  0  0  0  0  0  0  0  0  0  0  0
    2.5807    4.5844    0.0000 O   0  0  0  0  0  0  0  0  0  0  0  0
    3.3524    3.3848    0.0000 N   0  0  0  0  0  0  0  0  0  0  0  0
    1.2904    5.9201    0.0000 C   0  0  0  0  0  0  0  0  0  0  0  0
    4.0397    3.8387    0.0000 C   0  0  0  0  0  0  0  0  0  0  0  0
    3.3848    2.5678    0.0000 C   0  0  0  0  0  0  0  0  0  0  0  0
    4.7659    3.4691    0.0000 C   0  0  0  0  0  0  0  0  0  0  0  0
    4.1110    2.1982    0.0000 C   0  0  0  0  0  0  0  0  0  0  0  0
    4.7984    2.6521    0.0000 N   0  0  0  0  0  0  0  0  0  0  0  0
    5.5246    2.2825    0.0000 C   0  0  0  0  0  0  0  0  0  0  0  0
  1  2  1  0  0  0  0
  2  3  2  0  0  0  0
  2  4  1  0  0  0  0
  3  5  1  0  0  0  0
  4  6  2  0  0  0  0
  5  7  2  0  0  0  0
  7  8  1  0  0  0  0
  8  9  1  0  0  0  0
  8 10  1  0  0  0  0
  9 11  2  0  0  0  0
  9 12  1  0  0  0  0
 10 13  1  6  0  0  0
 10 14  1  0  0  0  0
 12 15  2  0  0  0  0
 13 16  1  0  0  0  0
 14 17  2  0  0  0  0
 15 18  1  0  0  0  0
 16 19  2  0  0  0  0
 16 20  1  0  0  0  0
 17 21  1  0  0  0  0
 20 22  1  0  0  0  0
 20 23  1  0  0  0  0
 22 24  1  0  0  0  0
 23 25  1  0  0  0  0
 24 26  1  0  0  0  0
 26 27  1  0  0  0  0
  6  7  1  0  0  0  0
 12 14  1  0  0  0  0
 18 21  2  0  0  0  0
 25 26  1  0  0  0  0
M  END

>  <name>
Eszopiclone

>  <ROTATABLE_BONDCOUNT>
3

>  <HBDScore>
1.0

>  <dipole>
4.90

>  <logD>
0.59

>  <MPOScore>
5.735547619047619

>  <logDScore>
1.0

>  <MW>
388.81

>  <charge_dist(7.4)>
0.02

>  <CNS>
TRUE

>  <ArRings>
2

>  <HBD>
0

>  <BALABAN_INDEX>
1.47

>  <bpKa>
6.86

>  <TPSAScore>
0.9413333333333331

>  <MWScore>
0.7942142857142858

>  <bpKaScore>
1.0

>  <logPScore>
1.0

>  <MPO_area>
91.39

>  <TPSA>
91.76

>  <logP>
0.52

$$$$

  Mrv1722703221715202D          

  9  8  0  0  0  0            999 V2000
    0.0000    0.0000    0.0000 Cl  0  0  0  0  0  0  0  0  0  0  0  0
    0.8158    0.1230    0.0000 C   0  0  0  0  0  0  0  0  0  0  0  0
    1.3208   -0.5244    0.0000 C   0  0  0  0  0  0  0  0  0  0  0  0
    2.1365   -0.4014    0.0000 C   0  0  2  0  0  0  0  0  0  0  0  0
    2.2466   -1.2172    0.0000 O   0  0  0  0  0  0  0  0  0  0  0  0
    2.0135    0.4273    0.0000 C   0  0  0  0  0  0  0  0  0  0  0  0
    2.9523   -0.2784    0.0000 C   0  0  0  0  0  0  0  0  0  0  0  0
    1.8905    1.2560    0.0000 C   0  0  0  0  0  0  0  0  0  0  0  0
    3.2566    0.4985    0.0000 C   0  0  0  0  0  0  0  0  0  0  0  0
  1  2  1  0  0  0  0
  2  3  2  3  0  0  0
  3  4  1  0  0  0  0
  4  5  1  1  0  0  0
  4  6  1  0  0  0  0
  4  7  1  0  0  0  0
  6  8  3  0  0  0  0
  7  9  1  0  0  0  0
M  END

>  <name>
Ethchlorvynol

>  <ROTATABLE_BONDCOUNT>
2

>  <HBDScore>
0.8333333333333334

>  <dipole>
2.34

>  <logD>
1.62

>  <MPOScore>
4.844833333333333

>  <logDScore>
1.0

>  <MW>
144.60

>  <charge_dist(7.4)>
-0.00

>  <CNS>
TRUE

>  <ArRings>
0

>  <HBD>
1

>  <BALABAN_INDEX>
3.62

>  <bpKa>
-3.73

>  <TPSAScore>
0.011500000000000022

>  <MWScore>
1.0

>  <bpKaScore>
1.0

>  <logPScore>
1.0

>  <MPO_area>
64.24

>  <TPSA>
20.23

>  <logP>
1.62

$$$$

  Mrv1722703221715202D          

 12 12  0  0  0  0            999 V2000
    0.0000    0.0000    0.0000 O   0  0  0  0  0  0  0  0  0  0  0  0
   -0.2868   -0.7755    0.0000 C   0  0  0  0  0  0  0  0  0  0  0  0
    0.2411   -1.4012    0.0000 O   0  0  0  0  0  0  0  0  0  0  0  0
   -1.1079   -0.9189    0.0000 N   0  0  0  0  0  0  0  0  0  0  0  0
    1.0493   -1.2448    0.0000 C   0  0  0  0  0  0  0  0  0  0  0  0
    1.0493   -2.0659    0.0000 C   0  0  0  0  0  0  0  0  0  0  0  0
    0.7560   -0.4627    0.0000 C   0  0  0  0  0  0  0  0  0  0  0  0
    1.8574   -1.3751    0.0000 C   0  0  0  0  0  0  0  0  0  0  0  0
    1.0493   -2.8871    0.0000 C   0  0  0  0  0  0  0  0  0  0  0  0
    1.2774    0.1825    0.0000 C   0  0  0  0  0  0  0  0  0  0  0  0
    2.3788   -0.7299    0.0000 C   0  0  0  0  0  0  0  0  0  0  0  0
    2.0855    0.0521    0.0000 C   0  0  0  0  0  0  0  0  0  0  0  0
  1  2  2  0  0  0  0
  2  3  1  0  0  0  0
  2  4  1  0  0  0  0
  3  5  1  0  0  0  0
  5  6  1  0  0  0  0
  5  7  1  0  0  0  0
  5  8  1  0  0  0  0
  6  9  3  0  0  0  0
  7 10  1  0  0  0  0
  8 11  1  0  0  0  0
 10 12  1  0  0  0  0
 11 12  1  0  0  0  0
M  END

>  <name>
Ethinamate

>  <ROTATABLE_BONDCOUNT>
2

>  <HBDScore>
0.8333333333333334

>  <dipole>
4.16

>  <logD>
1.54

>  <MPOScore>
5.833333333333333

>  <logDScore>
1.0

>  <MW>
167.208

>  <charge_dist(7.4)>
-0.00

>  <CNS>
TRUE

>  <ArRings>
0

>  <HBD>
1

>  <BALABAN_INDEX>
2.48

>  <bpKa>
0.0

>  <TPSAScore>
1.0

>  <MWScore>
1.0

>  <bpKaScore>
1.0

>  <logPScore>
1.0

>  <MPO_area>
94.44

>  <TPSA>
52.32

>  <logP>
1.54

$$$$

  Mrv1722703221715202D          

 11 11  0  0  0  0            999 V2000
    0.0000    0.0000    0.0000 S   0  0  0  0  0  0  0  0  0  0  0  0
   -0.0260    0.8309    0.0000 C   0  0  0  0  0  0  0  0  0  0  0  0
   -0.7530    1.2334    0.0000 N   0  0  0  0  0  0  0  0  0  0  0  0
    0.6751    1.2658    0.0000 C   0  0  0  0  0  0  0  0  0  0  0  0
    1.3892    0.8763    0.0000 C   0  0  0  0  0  0  0  0  0  0  0  0
    0.6492    2.0967    0.0000 C   0  0  0  0  0  0  0  0  0  0  0  0
    2.0902    1.3113    0.0000 C   0  0  0  0  0  0  0  0  0  0  0  0
    1.3502    2.5316    0.0000 C   0  0  0  0  0  0  0  0  0  0  0  0
    2.0642    2.1421    0.0000 N   0  0  0  0  0  0  0  0  0  0  0  0
    2.8042    0.9218    0.0000 C   0  0  0  0  0  0  0  0  0  0  0  0
    2.8172    0.1039    0.0000 C   0  0  0  0  0  0  0  0  0  0  0  0
  1  2  2  0  0  0  0
  2  3  1  0  0  0  0
  2  4  1  0  0  0  0
  4  5  2  0  0  0  0
  4  6  1  0  0  0  0
  5  7  1  0  0  0  0
  6  8  2  0  0  0  0
  7  9  2  0  0  0  0
  7 10  1  0  0  0  0
 10 11  1  0  0  0  0
  8  9  1  0  0  0  0
M  END

>  <name>
Ethionamide

>  <ROTATABLE_BONDCOUNT>
2

>  <HBDScore>
0.8333333333333334

>  <dipole>
4.13

>  <logD>
1.33

>  <MPOScore>
5.778833333333333

>  <logDScore>
1.0

>  <MW>
166.24

>  <charge_dist(7.4)>
0.00

>  <CNS>
TRUE

>  <ArRings>
1

>  <HBD>
1

>  <BALABAN_INDEX>
2.12

>  <bpKa>
5

>  <TPSAScore>
0.9454999999999999

>  <MWScore>
1.0

>  <bpKaScore>
1.0

>  <logPScore>
1.0

>  <MPO_area>
92.78

>  <TPSA>
38.91

>  <logP>
1.33

$$$$

  Mrv1722703221715202D          

 22 24  0  0  0  0            999 V2000
    0.0000    0.0000    0.0000 S   0  0  0  0  0  0  0  0  0  0  0  0
    0.6549   -0.4993    0.0000 C   0  0  0  0  0  0  0  0  0  0  0  0
    0.0973    0.8300    0.0000 C   0  0  0  0  0  0  0  0  0  0  0  0
    1.4136   -0.1751    0.0000 C   0  0  0  0  0  0  0  0  0  0  0  0
    0.5447   -1.3163    0.0000 C   0  0  0  0  0  0  0  0  0  0  0  0
    0.8559    1.1542    0.0000 C   0  0  0  0  0  0  0  0  0  0  0  0
   -0.5706    1.3423    0.0000 C   0  0  0  0  0  0  0  0  0  0  0  0
    1.5108    0.6549    0.0000 N   0  0  0  0  0  0  0  0  0  0  0  0
    2.0685   -0.6744    0.0000 C   0  0  0  0  0  0  0  0  0  0  0  0
    1.1996   -1.8156    0.0000 C   0  0  0  0  0  0  0  0  0  0  0  0
    0.9532    1.9842    0.0000 C   0  0  0  0  0  0  0  0  0  0  0  0
   -0.4733    2.1722    0.0000 C   0  0  0  0  0  0  0  0  0  0  0  0
    2.2695    0.9791    0.0000 C   0  0  0  0  0  0  0  0  0  0  0  0
    1.9583   -1.4914    0.0000 C   0  0  0  0  0  0  0  0  0  0  0  0
    0.2853    2.4965    0.0000 C   0  0  0  0  0  0  0  0  0  0  0  0
    2.9245    0.4799    0.0000 C   0  0  1  0  0  0  0  0  0  0  0  0
    3.6831    0.8041    0.0000 N   0  0  0  0  0  0  0  0  0  0  0  0
    2.8142   -0.3372    0.0000 C   0  0  0  0  0  0  0  0  0  0  0  0
    3.7804    1.6340    0.0000 C   0  0  0  0  0  0  0  0  0  0  0  0
    4.3380    0.3048    0.0000 C   0  0  0  0  0  0  0  0  0  0  0  0
    4.5391    1.9583    0.0000 C   0  0  0  0  0  0  0  0  0  0  0  0
    5.0967    0.6290    0.0000 C   0  0  0  0  0  0  0  0  0  0  0  0
  1  2  1  0  0  0  0
  1  3  1  0  0  0  0
  2  4  2  0  0  0  0
  2  5  1  0  0  0  0
  3  6  2  0  0  0  0
  3  7  1  0  0  0  0
  4  8  1  0  0  0  0
  4  9  1  0  0  0  0
  5 10  2  0  0  0  0
  6 11  1  0  0  0  0
  7 12  2  0  0  0  0
  8 13  1  0  0  0  0
  9 14  2  0  0  0  0
 11 15  2  0  0  0  0
 13 16  1  0  0  0  0
 16 17  1  1  0  0  0
 16 18  1  0  0  0  0
 17 19  1  0  0  0  0
 17 20  1  0  0  0  0
 19 21  1  0  0  0  0
 20 22  1  0  0  0  0
  6  8  1  0  0  0  0
 10 14  1  0  0  0  0
 12 15  1  0  0  0  0
M  END

>  <name>
Ethopropazine

>  <ROTATABLE_BONDCOUNT>
5

>  <HBDScore>
1.0

>  <dipole>
5.63

>  <logD>
2.82

>  <MPOScore>
2.79

>  <logDScore>
0.5900000000000001

>  <MW>
312.48

>  <charge_dist(7.4)>
0.99

>  <CNS>
TRUE

>  <ArRings>
2

>  <HBD>
0

>  <BALABAN_INDEX>
1.73

>  <bpKa>
9.6

>  <TPSAScore>
0.0

>  <MWScore>
1.0

>  <bpKaScore>
0.20000000000000018

>  <logPScore>
0.0

>  <MPO_area>
28.47

>  <TPSA>
6.48

>  <logP>
5.00

$$$$

  Mrv1722703221715202D          

 10 10  0  0  0  0            999 V2000
    0.0000    0.0000    0.0000 O   0  0  0  0  0  0  0  0  0  0  0  0
    0.6597    0.4851    0.0000 C   0  0  0  0  0  0  0  0  0  0  0  0
    1.4357    0.2328    0.0000 N   0  0  0  0  0  0  0  0  0  0  0  0
    0.6597    1.3128    0.0000 C   0  0  2  0  0  0  0  0  0  0  0  0
    1.9143    0.8989    0.0000 C   0  0  0  0  0  0  0  0  0  0  0  0
    1.4357    1.5716    0.0000 C   0  0  0  0  0  0  0  0  0  0  0  0
    0.4851    2.1213    0.0000 C   0  0  0  0  0  0  0  0  0  0  0  0
   -0.1617    1.2352    0.0000 C   0  0  0  0  0  0  0  0  0  0  0  0
    2.7292    0.8989    0.0000 O   0  0  0  0  0  0  0  0  0  0  0  0
    1.0930    2.6710    0.0000 C   0  0  0  0  0  0  0  0  0  0  0  0
  1  2  2  0  0  0  0
  2  3  1  0  0  0  0
  2  4  1  0  0  0  0
  3  5  1  0  0  0  0
  4  6  1  0  0  0  0
  4  7  1  0  0  0  0
  4  8  1  6  0  0  0
  5  9  2  0  0  0  0
  7 10  1  0  0  0  0
  5  6  1  0  0  0  0
M  END

>  <name>
Ethosuximide

>  <ROTATABLE_BONDCOUNT>
1

>  <HBDScore>
0.8333333333333334

>  <dipole>
1.59

>  <logD>
0.55

>  <MPOScore>
5.833333333333333

>  <logDScore>
1.0

>  <MW>
141.170

>  <charge_dist(7.4)>
-0.00

>  <CNS>
TRUE

>  <ArRings>
0

>  <HBD>
1

>  <BALABAN_INDEX>
2.61

>  <bpKa>
-6.6

>  <TPSAScore>
1.0

>  <MWScore>
1.0

>  <bpKaScore>
1.0

>  <logPScore>
1.0

>  <MPO_area>
94.44

>  <TPSA>
46.17

>  <logP>
0.55

$$$$

  Mrv1722703221715202D          

 15 16  0  0  0  0            999 V2000
    0.0000    0.0000    0.0000 O   0  0  0  0  0  0  0  0  0  0  0  0
    0.5846    0.5846    0.0000 C   0  0  0  0  0  0  0  0  0  0  0  0
    0.4547    1.4096    0.0000 N   0  0  0  0  0  0  0  0  0  0  0  0
    1.3901    0.4547    0.0000 N   0  0  0  0  0  0  0  0  0  0  0  0
    1.1887    1.7863    0.0000 C   0  0  0  0  0  0  0  0  0  0  0  0
   -0.2858    1.7993    0.0000 C   0  0  0  0  0  0  0  0  0  0  0  0
    1.7668    1.1952    0.0000 C   0  0  1  0  0  0  0  0  0  0  0  0
    1.3186    2.6047    0.0000 O   0  0  0  0  0  0  0  0  0  0  0  0
   -0.3248    2.6307    0.0000 C   0  0  0  0  0  0  0  0  0  0  0  0
    2.5787    1.3251    0.0000 C   0  0  0  0  0  0  0  0  0  0  0  0
    3.0854    0.6820    0.0000 C   0  0  0  0  0  0  0  0  0  0  0  0
    2.8775    2.0981    0.0000 C   0  0  0  0  0  0  0  0  0  0  0  0
    3.8974    0.8120    0.0000 C   0  0  0  0  0  0  0  0  0  0  0  0
    3.6895    2.2280    0.0000 C   0  0  0  0  0  0  0  0  0  0  0  0
    4.1961    1.5849    0.0000 C   0  0  0  0  0  0  0  0  0  0  0  0
  1  2  2  0  0  0  0
  2  3  1  0  0  0  0
  2  4  1  0  0  0  0
  3  5  1  0  0  0  0
  3  6  1  0  0  0  0
  4  7  1  0  0  0  0
  5  8  2  0  0  0  0
  6  9  1  0  0  0  0
  7 10  1  1  0  0  0
 10 11  2  0  0  0  0
 10 12  1  0  0  0  0
 11 13  1  0  0  0  0
 12 14  2  0  0  0  0
 13 15  2  0  0  0  0
  5  7  1  0  0  0  0
 14 15  1  0  0  0  0
M  END

>  <name>
Ethotoin

>  <ROTATABLE_BONDCOUNT>
2

>  <HBDScore>
0.8333333333333334

>  <dipole>
1.96

>  <logD>
1.07

>  <MPOScore>
5.833333333333333

>  <logDScore>
1.0

>  <MW>
204.229

>  <charge_dist(7.4)>
-0.00

>  <CNS>
TRUE

>  <ArRings>
1

>  <HBD>
1

>  <BALABAN_INDEX>
1.85

>  <bpKa>
-8.37

>  <TPSAScore>
1.0

>  <MWScore>
1.0

>  <bpKaScore>
1.0

>  <logPScore>
1.0

>  <MPO_area>
94.44

>  <TPSA>
49.41

>  <logP>
1.07

$$$$

  Mrv1722703221715202D          

 22 23  0  0  0  0            999 V2000
    0.0000    0.0000    0.0000 F   0  0  0  0  0  0  0  0  0  0  0  0
   -0.8046   -0.1823    0.0000 C   0  0  0  0  0  0  0  0  0  0  0  0
   -1.0435   -0.9618    0.0000 C   0  0  0  0  0  0  0  0  0  0  0  0
   -1.3766    0.4211    0.0000 C   0  0  0  0  0  0  0  0  0  0  0  0
   -1.8481   -1.1440    0.0000 C   0  0  0  0  0  0  0  0  0  0  0  0
   -2.1812    0.2389    0.0000 C   0  0  0  0  0  0  0  0  0  0  0  0
   -2.4201   -0.5406    0.0000 C   0  0  0  0  0  0  0  0  0  0  0  0
   -3.2247   -0.7229    0.0000 C   0  0  0  0  0  0  0  0  0  0  0  0
   -3.7967   -0.1194    0.0000 N   0  0  0  0  0  0  0  0  0  0  0  0
   -4.6013   -0.3017    0.0000 C   0  0  0  0  0  0  0  0  0  0  0  0
   -4.8401   -1.0812    0.0000 C   0  0  0  0  0  0  0  0  0  0  0  0
   -5.1733    0.3017    0.0000 C   0  0  0  0  0  0  0  0  0  0  0  0
   -5.6448   -1.2635    0.0000 C   0  0  0  0  0  0  0  0  0  0  0  0
   -5.9779    0.1194    0.0000 C   0  0  0  0  0  0  0  0  0  0  0  0
   -5.8836   -2.0430    0.0000 N   0  0  0  0  0  0  0  0  0  0  0  0
   -6.2168   -0.6600    0.0000 C   0  0  0  0  0  0  0  0  0  0  0  0
   -7.0214   -0.8423    0.0000 N   0  0  0  0  0  0  0  0  0  0  0  0
   -7.5934   -0.2389    0.0000 C   0  0  0  0  0  0  0  0  0  0  0  0
   -7.3671    0.5532    0.0000 O   0  0  0  0  0  0  0  0  0  0  0  0
   -8.3980   -0.4211    0.0000 O   0  0  0  0  0  0  0  0  0  0  0  0
   -8.9700    0.1823    0.0000 C   0  0  0  0  0  0  0  0  0  0  0  0
   -9.7747    0.0000    0.0000 C   0  0  0  0  0  0  0  0  0  0  0  0
  1  2  1  0  0  0  0
  2  3  2  0  0  0  0
  2  4  1  0  0  0  0
  3  5  1  0  0  0  0
  4  6  2  0  0  0  0
  5  7  2  0  0  0  0
  7  8  1  0  0  0  0
  8  9  1  0  0  0  0
  9 10  1  0  0  0  0
 10 11  2  0  0  0  0
 10 12  1  0  0  0  0
 11 13  1  0  0  0  0
 12 14  2  0  0  0  0
 13 15  1  0  0  0  0
 13 16  2  0  0  0  0
 16 17  1  0  0  0  0
 17 18  1  0  0  0  0
 18 19  2  0  0  0  0
 18 20  1  0  0  0  0
 20 21  1  0  0  0  0
 21 22  1  0  0  0  0
  6  7  1  0  0  0  0
 14 16  1  0  0  0  0
M  END

>  <name>
Ezogabine

>  <ROTATABLE_BONDCOUNT>
6

>  <HBDScore>
0.16666666666666674

>  <dipole>
6.40

>  <logD>
2.70

>  <MPOScore>
4.816666666666666

>  <logDScore>
0.6499999999999999

>  <MW>
303.337

>  <charge_dist(7.4)>
0.00

>  <CNS>
TRUE

>  <ArRings>
2

>  <HBD>
3

>  <BALABAN_INDEX>
1.50

>  <bpKa>
3.99

>  <TPSAScore>
1.0

>  <MWScore>
1.0

>  <bpKaScore>
1.0

>  <logPScore>
1.0

>  <MPO_area>
65.42

>  <TPSA>
76.38

>  <logP>
2.70

$$$$

  Mrv1722703221715202D          

 20 20  0  0  0  0            999 V2000
    0.0000    0.0000    0.0000 S   0  0  0  0  0  0  0  0  0  0  0  0
   -0.2939    0.7839    0.0000 O   0  0  0  0  0  0  0  0  0  0  0  0
    0.2809   -0.7709    0.0000 O   0  0  0  0  0  0  0  0  0  0  0  0
    0.7709    0.2939    0.0000 N   0  0  0  0  0  0  0  0  0  0  0  0
   -0.7839   -0.2809    0.0000 N   0  0  0  0  0  0  0  0  0  0  0  0
    0.9015    1.1171    0.0000 C   0  0  0  0  0  0  0  0  0  0  0  0
    0.2548    1.6528    0.0000 N   0  0  0  0  0  0  0  0  0  0  0  0
    1.6724    1.4111    0.0000 C   0  0  0  0  0  0  0  0  0  0  0  0
    2.3061    0.8885    0.0000 C   0  0  0  0  0  0  0  0  0  0  0  0
    3.0769    1.1824    0.0000 S   0  0  0  0  0  0  0  0  0  0  0  0
    3.7106    0.6598    0.0000 C   0  0  0  0  0  0  0  0  0  0  0  0
    4.4815    0.9538    0.0000 C   0  0  0  0  0  0  0  0  0  0  0  0
    5.1674    0.5030    0.0000 N   0  0  0  0  0  0  0  0  0  0  0  0
    4.6971    1.7573    0.0000 C   0  0  0  0  0  0  0  0  0  0  0  0
    5.8142    1.0256    0.0000 C   0  0  0  0  0  0  0  0  0  0  0  0
    5.5202    1.7965    0.0000 S   0  0  0  0  0  0  0  0  0  0  0  0
    6.6046    0.8100    0.0000 N   0  0  0  0  0  0  0  0  0  0  0  0
    6.8072    0.0131    0.0000 C   0  0  0  0  0  0  0  0  0  0  0  0
    7.5976   -0.2025    0.0000 N   0  0  0  0  0  0  0  0  0  0  0  0
    6.2061   -0.5618    0.0000 N   0  0  0  0  0  0  0  0  0  0  0  0
  1  2  2  0  0  0  0
  1  3  2  0  0  0  0
  1  4  1  0  0  0  0
  1  5  1  0  0  0  0
  4  6  2  3  0  0  0
  6  7  1  0  0  0  0
  6  8  1  0  0  0  0
  8  9  1  0  0  0  0
  9 10  1  0  0  0  0
 10 11  1  0  0  0  0
 11 12  1  0  0  0  0
 12 13  1  0  0  0  0
 12 14  2  0  0  0  0
 13 15  2  0  0  0  0
 14 16  1  0  0  0  0
 15 17  1  0  0  0  0
 17 18  2  0  0  0  0
 18 19  1  0  0  0  0
 18 20  1  0  0  0  0
 15 16  1  0  0  0  0
M  END

>  <name>
Famotidine

>  <ROTATABLE_BONDCOUNT>
6

>  <HBDScore>
0.0

>  <dipole>
2.82

>  <logD>
-2.67

>  <MPOScore>
3.8099999999999996

>  <logDScore>
1.0

>  <MW>
337.44

>  <charge_dist(7.4)>
0.89

>  <CNS>
TRUE

>  <ArRings>
1

>  <HBD>
4

>  <BALABAN_INDEX>
2.05

>  <bpKa>
8.38

>  <TPSAScore>
0.0

>  <MWScore>
1.0

>  <bpKaScore>
0.8099999999999996

>  <logPScore>
1.0

>  <MPO_area>
46.83

>  <TPSA>
175.83

>  <logP>
-1.95

$$$$

  Mrv1722703221715202D          

 22 23  0  0  0  0            999 V2000
    0.0000    0.0000    0.0000 S   0  0  0  0  0  0  0  0  0  0  0  0
   -0.5558    0.6139    0.0000 C   0  0  0  0  0  0  0  0  0  0  0  0
    0.7432    0.3425    0.0000 C   0  0  0  0  0  0  0  0  0  0  0  0
   -0.1551    1.3312    0.0000 N   0  0  0  0  0  0  0  0  0  0  0  0
   -1.3765    0.5299    0.0000 C   0  0  0  0  0  0  0  0  0  0  0  0
    0.6463    1.1632    0.0000 C   0  0  0  0  0  0  0  0  0  0  0  0
    1.4476   -0.0582    0.0000 C   0  0  0  0  0  0  0  0  0  0  0  0
   -1.7125   -0.2133    0.0000 C   0  0  0  0  0  0  0  0  0  0  0  0
   -1.8676    1.2020    0.0000 C   0  0  0  0  0  0  0  0  0  0  0  0
    1.2472    1.7190    0.0000 C   0  0  0  0  0  0  0  0  0  0  0  0
    2.1519    0.3619    0.0000 O   0  0  0  0  0  0  0  0  0  0  0  0
    1.4411   -0.8724    0.0000 O   0  0  0  0  0  0  0  0  0  0  0  0
   -2.5332   -0.2973    0.0000 C   0  0  0  0  0  0  0  0  0  0  0  0
   -2.6883    1.1180    0.0000 C   0  0  0  0  0  0  0  0  0  0  0  0
   -2.8693   -1.0404    0.0000 C   0  0  0  0  0  0  0  0  0  0  0  0
   -3.0244    0.3748    0.0000 C   0  0  0  0  0  0  0  0  0  0  0  0
   -3.2053   -1.7836    0.0000 N   0  0  0  0  0  0  0  0  0  0  0  0
   -3.8451    0.2908    0.0000 O   0  0  0  0  0  0  0  0  0  0  0  0
   -4.3362    0.9629    0.0000 C   0  0  0  0  0  0  0  0  0  0  0  0
   -5.1569    0.8789    0.0000 C   0  0  0  0  0  0  0  0  0  0  0  0
   -5.6481    1.5509    0.0000 C   0  0  0  0  0  0  0  0  0  0  0  0
   -5.4929    0.1357    0.0000 C   0  0  0  0  0  0  0  0  0  0  0  0
  1  2  1  0  0  0  0
  1  3  1  0  0  0  0
  2  4  2  0  0  0  0
  2  5  1  0  0  0  0
  3  6  2  0  0  0  0
  3  7  1  0  0  0  0
  5  8  2  0  0  0  0
  5  9  1  0  0  0  0
  6 10  1  0  0  0  0
  7 11  2  0  0  0  0
  7 12  1  0  0  0  0
  8 13  1  0  0  0  0
  9 14  2  0  0  0  0
 13 15  1  0  0  0  0
 13 16  2  0  0  0  0
 15 17  3  0  0  0  0
 16 18  1  0  0  0  0
 18 19  1  0  0  0  0
 19 20  1  0  0  0  0
 20 21  1  0  0  0  0
 20 22  1  0  0  0  0
  4  6  1  0  0  0  0
 14 16  1  0  0  0  0
M  END

>  <name>
Febuxostat

>  <ROTATABLE_BONDCOUNT>
5

>  <HBDScore>
0.8333333333333334

>  <dipole>
7.37

>  <logD>
0.17

>  <MPOScore>
5.573333333333333

>  <logDScore>
1.0

>  <MW>
316.38

>  <charge_dist(7.4)>
-1.00

>  <CNS>
TRUE

>  <ArRings>
2

>  <HBD>
1

>  <BALABAN_INDEX>
1.72

>  <bpKa>
0.4

>  <TPSAScore>
1.0

>  <MWScore>
1.0

>  <bpKaScore>
1.0

>  <logPScore>
0.74

>  <MPO_area>
86.5

>  <TPSA>
83.21

>  <logP>
3.52

$$$$

  Mrv1722703221715202D          

 17 17  0  0  0  0            999 V2000
    0.0000    0.0000    0.0000 O   0  0  0  0  0  0  0  0  0  0  0  0
    0.3996    0.7154    0.0000 C   0  0  0  0  0  0  0  0  0  0  0  0
   -0.0129    1.4308    0.0000 O   0  0  0  0  0  0  0  0  0  0  0  0
    1.2117    0.7218    0.0000 N   0  0  0  0  0  0  0  0  0  0  0  0
   -0.8379    1.4373    0.0000 C   0  0  0  0  0  0  0  0  0  0  0  0
   -1.2503    2.1526    0.0000 C   0  0  0  0  0  0  0  0  0  0  0  0
   -2.0753    2.1591    0.0000 C   0  0  0  0  0  0  0  0  0  0  0  0
   -0.8507    2.8681    0.0000 C   0  0  0  0  0  0  0  0  0  0  0  0
   -2.4878    1.4566    0.0000 C   0  0  0  0  0  0  0  0  0  0  0  0
   -2.4878    2.8745    0.0000 C   0  0  0  0  0  0  0  0  0  0  0  0
   -0.0387    2.8745    0.0000 O   0  0  0  0  0  0  0  0  0  0  0  0
   -3.3128    1.4630    0.0000 C   0  0  0  0  0  0  0  0  0  0  0  0
   -3.3128    2.8809    0.0000 C   0  0  0  0  0  0  0  0  0  0  0  0
    0.3609    3.5899    0.0000 C   0  0  0  0  0  0  0  0  0  0  0  0
   -3.7253    2.1785    0.0000 C   0  0  0  0  0  0  0  0  0  0  0  0
   -0.0515    4.3053    0.0000 O   0  0  0  0  0  0  0  0  0  0  0  0
    1.1730    3.5964    0.0000 N   0  0  0  0  0  0  0  0  0  0  0  0
  1  2  2  0  0  0  0
  2  3  1  0  0  0  0
  2  4  1  0  0  0  0
  3  5  1  0  0  0  0
  5  6  1  0  0  0  0
  6  7  1  0  0  0  0
  6  8  1  0  0  0  0
  7  9  2  0  0  0  0
  7 10  1  0  0  0  0
  8 11  1  0  0  0  0
  9 12  1  0  0  0  0
 10 13  2  0  0  0  0
 11 14  1  0  0  0  0
 12 15  2  0  0  0  0
 14 16  2  0  0  0  0
 14 17  1  0  0  0  0
 13 15  1  0  0  0  0
M  END

>  <name>
Felbamate

>  <ROTATABLE_BONDCOUNT>
7

>  <HBDScore>
0.5

>  <dipole>
4.61

>  <logD>
0.68

>  <MPOScore>
5.0120000000000005

>  <logDScore>
1.0

>  <MW>
238.243

>  <charge_dist(7.4)>
-0.00

>  <CNS>
TRUE

>  <ArRings>
1

>  <HBD>
2

>  <BALABAN_INDEX>
2.24

>  <bpKa>
0.0

>  <TPSAScore>
0.512

>  <MWScore>
1.0

>  <bpKaScore>
1.0

>  <logPScore>
1.0

>  <MPO_area>
71.13

>  <TPSA>
104.64

>  <logP>
0.68

$$$$

  Mrv1722703221715202D          

 25 26  0  0  0  0            999 V2000
    0.0000    0.0000    0.0000 Cl  0  0  0  0  0  0  0  0  0  0  0  0
   -0.4328   -0.3261    0.0000 C   0  0  0  0  0  0  0  0  0  0  0  0
   -0.2258   -1.1164    0.0000 C   0  0  0  0  0  0  0  0  0  0  0  0
   -1.2356   -0.1066    0.0000 C   0  0  0  0  0  0  0  0  0  0  0  0
    0.5645   -1.3235    0.0000 Cl  0  0  0  0  0  0  0  0  0  0  0  0
   -0.8154   -1.6935    0.0000 C   0  0  0  0  0  0  0  0  0  0  0  0
   -1.8253   -0.6837    0.0000 C   0  0  0  0  0  0  0  0  0  0  0  0
   -1.4552    0.6962    0.0000 C   0  0  2  0  0  0  0  0  0  0  0  0
   -1.6182   -1.4740    0.0000 C   0  0  0  0  0  0  0  0  0  0  0  0
   -2.2580    0.9158    0.0000 C   0  0  0  0  0  0  0  0  0  0  0  0
   -0.8781    1.2858    0.0000 C   0  0  0  0  0  0  0  0  0  0  0  0
   -2.4776    1.7186    0.0000 C   0  0  0  0  0  0  0  0  0  0  0  0
   -2.8476    0.3387    0.0000 C   0  0  0  0  0  0  0  0  0  0  0  0
   -1.0976    2.0887    0.0000 C   0  0  0  0  0  0  0  0  0  0  0  0
   -0.0878    1.0788    0.0000 C   0  0  0  0  0  0  0  0  0  0  0  0
   -1.9005    2.3082    0.0000 N   0  0  0  0  0  0  0  0  0  0  0  0
   -3.2804    1.9382    0.0000 C   0  0  0  0  0  0  0  0  0  0  0  0
   -2.6406   -0.4516    0.0000 O   0  0  0  0  0  0  0  0  0  0  0  0
   -3.6504    0.5582    0.0000 O   0  0  0  0  0  0  0  0  0  0  0  0
   -0.5206    2.6783    0.0000 C   0  0  0  0  0  0  0  0  0  0  0  0
    0.1066    0.5833    0.0000 O   0  0  0  0  0  0  0  0  0  0  0  0
    0.4893    1.6685    0.0000 O   0  0  0  0  0  0  0  0  0  0  0  0
   -4.2401   -0.0188    0.0000 C   0  0  0  0  0  0  0  0  0  0  0  0
    1.2796    1.4614    0.0000 C   0  0  0  0  0  0  0  0  0  0  0  0
   -5.0429    0.2007    0.0000 C   0  0  0  0  0  0  0  0  0  0  0  0
  1  2  1  0  0  0  0
  2  3  2  0  0  0  0
  2  4  1  0  0  0  0
  3  5  1  0  0  0  0
  3  6  1  0  0  0  0
  4  7  2  0  0  0  0
  8  4  1  6  0  0  0
  6  9  2  0  0  0  0
  8 10  1  0  0  0  0
  8 11  1  0  0  0  0
 10 12  2  0  0  0  0
 10 13  1  0  0  0  0
 11 14  2  0  0  0  0
 11 15  1  0  0  0  0
 12 16  1  0  0  0  0
 12 17  1  0  0  0  0
 13 18  2  0  0  0  0
 13 19  1  0  0  0  0
 14 20  1  0  0  0  0
 15 21  2  0  0  0  0
 15 22  1  0  0  0  0
 19 23  1  0  0  0  0
 22 24  1  0  0  0  0
 23 25  1  0  0  0  0
  7  9  1  0  0  0  0
 14 16  1  0  0  0  0
M  END

>  <name>
Felodipine

>  <ROTATABLE_BONDCOUNT>
6

>  <HBDScore>
0.8333333333333334

>  <dipole>
5.73

>  <logD>
3.44

>  <MPOScore>
4.720119047619048

>  <logDScore>
0.28

>  <MW>
384.25

>  <charge_dist(7.4)>
-0.00

>  <CNS>
TRUE

>  <ArRings>
1

>  <HBD>
1

>  <BALABAN_INDEX>
2.21

>  <bpKa>
-6.64

>  <TPSAScore>
1.0

>  <MWScore>
0.8267857142857142

>  <bpKaScore>
1.0

>  <logPScore>
0.78

>  <MPO_area>
61.09

>  <TPSA>
64.63

>  <logP>
3.44

$$$$

  Mrv1722703221715202D          

 25 26  0  0  0  0            999 V2000
    0.0000    0.0000    0.0000 Cl  0  0  0  0  0  0  0  0  0  0  0  0
   -0.3346   -0.7464    0.0000 C   0  0  0  0  0  0  0  0  0  0  0  0
    0.1480   -1.4026    0.0000 C   0  0  0  0  0  0  0  0  0  0  0  0
   -1.1581   -0.8300    0.0000 C   0  0  0  0  0  0  0  0  0  0  0  0
   -0.1866   -2.1489    0.0000 C   0  0  0  0  0  0  0  0  0  0  0  0
   -1.4927   -1.5764    0.0000 C   0  0  0  0  0  0  0  0  0  0  0  0
   -1.0101   -2.2326    0.0000 C   0  0  0  0  0  0  0  0  0  0  0  0
   -1.3447   -2.9789    0.0000 C   0  0  0  0  0  0  0  0  0  0  0  0
   -0.8621   -3.6352    0.0000 O   0  0  0  0  0  0  0  0  0  0  0  0
   -2.1683   -3.0626    0.0000 C   0  0  0  0  0  0  0  0  0  0  0  0
   -2.6637   -2.3934    0.0000 C   0  0  0  0  0  0  0  0  0  0  0  0
   -2.5029   -3.8089    0.0000 C   0  0  0  0  0  0  0  0  0  0  0  0
   -3.4872   -2.4771    0.0000 C   0  0  0  0  0  0  0  0  0  0  0  0
   -3.3264   -3.8926    0.0000 C   0  0  0  0  0  0  0  0  0  0  0  0
   -3.8218   -3.2234    0.0000 C   0  0  0  0  0  0  0  0  0  0  0  0
   -4.6454   -3.3071    0.0000 O   0  0  0  0  0  0  0  0  0  0  0  0
   -5.1408   -2.6379    0.0000 C   0  0  0  0  0  0  0  0  0  0  0  0
   -5.6362   -1.9688    0.0000 C   0  0  0  0  0  0  0  0  0  0  0  0
   -5.8099   -3.1205    0.0000 C   0  0  0  0  0  0  0  0  0  0  0  0
   -4.4845   -2.1425    0.0000 C   0  0  0  0  0  0  0  0  0  0  0  0
   -6.4597   -2.0524    0.0000 O   0  0  0  0  0  0  0  0  0  0  0  0
   -5.3145   -1.2096    0.0000 O   0  0  0  0  0  0  0  0  0  0  0  0
   -5.8099   -0.5404    0.0000 C   0  0  0  0  0  0  0  0  0  0  0  0
   -5.4882    0.2188    0.0000 C   0  0  0  0  0  0  0  0  0  0  0  0
   -6.6335   -0.6241    0.0000 C   0  0  0  0  0  0  0  0  0  0  0  0
  1  2  1  0  0  0  0
  2  3  2  0  0  0  0
  2  4  1  0  0  0  0
  3  5  1  0  0  0  0
  4  6  2  0  0  0  0
  5  7  2  0  0  0  0
  7  8  1  0  0  0  0
  8  9  2  0  0  0  0
  8 10  1  0  0  0  0
 10 11  2  0  0  0  0
 10 12  1  0  0  0  0
 11 13  1  0  0  0  0
 12 14  2  0  0  0  0
 13 15  2  0  0  0  0
 15 16  1  0  0  0  0
 16 17  1  0  0  0  0
 17 18  1  0  0  0  0
 17 19  1  0  0  0  0
 17 20  1  0  0  0  0
 18 21  2  0  0  0  0
 18 22  1  0  0  0  0
 22 23  1  0  0  0  0
 23 24  1  0  0  0  0
 23 25  1  0  0  0  0
  6  7  1  0  0  0  0
 14 15  1  0  0  0  0
M  END

>  <name>
Fenofibrate

>  <ROTATABLE_BONDCOUNT>
7

>  <HBDScore>
1.0

>  <dipole>
4.94

>  <logD>
5.28

>  <MPOScore>
3.994071428571429

>  <logDScore>
0.0

>  <MW>
360.83

>  <charge_dist(7.4)>
0.00

>  <CNS>
TRUE

>  <ArRings>
2

>  <HBD>
0

>  <BALABAN_INDEX>
1.63

>  <bpKa>
-4.93

>  <TPSAScore>
1.0

>  <MWScore>
0.9940714285714287

>  <bpKaScore>
1.0

>  <logPScore>
0.0

>  <MPO_area>
49.9

>  <TPSA>
52.60

>  <logP>
5.28

$$$$

  Mrv1722703221715202D          

 25 27  0  0  0  0            999 V2000
    0.0000    0.0000    0.0000 O   0  0  0  0  0  0  0  0  0  0  0  0
   -0.5511    0.6208    0.0000 C   0  0  0  0  0  0  0  0  0  0  0  0
   -0.2914    1.4064    0.0000 N   0  0  0  0  0  0  0  0  0  0  0  0
   -1.3620    0.4688    0.0000 C   0  0  0  0  0  0  0  0  0  0  0  0
   -0.8362    2.0272    0.0000 C   0  0  0  0  0  0  0  0  0  0  0  0
    0.5068    1.5711    0.0000 C   0  0  0  0  0  0  0  0  0  0  0  0
   -1.6344   -0.3041    0.0000 C   0  0  0  0  0  0  0  0  0  0  0  0
   -0.5828    2.8127    0.0000 C   0  0  0  0  0  0  0  0  0  0  0  0
   -1.6471    1.8751    0.0000 C   0  0  0  0  0  0  0  0  0  0  0  0
    1.0389    0.9629    0.0000 C   0  0  0  0  0  0  0  0  0  0  0  0
    0.7602    2.3566    0.0000 C   0  0  0  0  0  0  0  0  0  0  0  0
   -1.1276    3.4335    0.0000 C   0  0  0  0  0  0  0  0  0  0  0  0
   -2.1919    2.4959    0.0000 C   0  0  0  0  0  0  0  0  0  0  0  0
    1.8371    1.1276    0.0000 C   0  0  0  0  0  0  0  0  0  0  0  0
    1.5584    2.5213    0.0000 C   0  0  0  0  0  0  0  0  0  0  0  0
   -1.9385    3.2814    0.0000 C   0  0  0  0  0  0  0  0  0  0  0  0
    2.0968    1.9131    0.0000 N   0  0  0  0  0  0  0  0  0  0  0  0
    2.8950    2.0778    0.0000 C   0  0  0  0  0  0  0  0  0  0  0  0
    3.4272    1.4697    0.0000 C   0  0  0  0  0  0  0  0  0  0  0  0
    4.2254    1.6344    0.0000 C   0  0  0  0  0  0  0  0  0  0  0  0
    4.7638    1.0263    0.0000 C   0  0  0  0  0  0  0  0  0  0  0  0
    4.4851    2.4199    0.0000 C   0  0  0  0  0  0  0  0  0  0  0  0
    5.5620    1.1910    0.0000 C   0  0  0  0  0  0  0  0  0  0  0  0
    5.2833    2.5846    0.0000 C   0  0  0  0  0  0  0  0  0  0  0  0
    5.8217    1.9765    0.0000 C   0  0  0  0  0  0  0  0  0  0  0  0
  1  2  2  0  0  0  0
  2  3  1  0  0  0  0
  2  4  1  0  0  0  0
  3  5  1  0  0  0  0
  3  6  1  0  0  0  0
  4  7  1  0  0  0  0
  5  8  2  0  0  0  0
  5  9  1  0  0  0  0
  6 10  1  0  0  0  0
  6 11  1  0  0  0  0
  8 12  1  0  0  0  0
  9 13  2  0  0  0  0
 10 14  1  0  0  0  0
 11 15  1  0  0  0  0
 12 16  2  0  0  0  0
 14 17  1  0  0  0  0
 17 18  1  0  0  0  0
 18 19  1  0  0  0  0
 19 20  1  0  0  0  0
 20 21  2  0  0  0  0
 20 22  1  0  0  0  0
 21 23  1  0  0  0  0
 22 24  2  0  0  0  0
 23 25  2  0  0  0  0
 13 16  1  0  0  0  0
 15 17  1  0  0  0  0
 24 25  1  0  0  0  0
M  END

>  <name>
Fentanyl

>  <ROTATABLE_BONDCOUNT>
6

>  <HBDScore>
1.0

>  <dipole>
5.01

>  <logD>
2.43

>  <MPOScore>
4.1675

>  <logDScore>
0.7849999999999999

>  <MW>
336.479

>  <charge_dist(7.4)>
0.96

>  <CNS>
TRUE

>  <ArRings>
2

>  <HBD>
0

>  <BALABAN_INDEX>
1.29

>  <bpKa>
8.77

>  <TPSAScore>
0.17750000000000005

>  <MWScore>
1.0

>  <bpKaScore>
0.6150000000000002

>  <logPScore>
0.5900000000000001

>  <MPO_area>
48.55

>  <TPSA>
23.55

>  <logP>
3.82

$$$$

  Mrv1722703221715202D          

 27 30  0  0  0  0            999 V2000
    0.0000    0.0000    0.0000 O   0  0  0  0  0  0  0  0  0  0  0  0
   -0.8212   -0.0898    0.0000 C   0  0  0  0  0  0  0  0  0  0  0  0
   -1.1484   -0.8340    0.0000 N   0  0  0  0  0  0  0  0  0  0  0  0
   -1.3151    0.5709    0.0000 C   0  0  0  0  0  0  0  0  0  0  0  0
   -1.9695   -0.9238    0.0000 C   0  0  2  0  0  0  0  0  0  0  0  0
   -2.1363    0.4812    0.0000 C   0  0  0  0  0  0  0  0  0  0  0  0
   -2.4635   -0.2630    0.0000 C   0  0  1  0  0  0  0  0  0  0  0  0
   -2.2967   -1.6680    0.0000 C   0  0  0  0  0  0  0  0  0  0  0  0
   -3.2846   -0.3528    0.0000 C   0  0  1  0  0  0  0  0  0  0  0  0
   -2.9574    0.3978    0.0000 C   0  0  0  0  0  0  0  0  0  0  0  0
   -3.1178   -1.7578    0.0000 C   0  0  0  0  0  0  0  0  0  0  0  0
   -3.6118   -1.0970    0.0000 C   0  0  2  0  0  0  0  0  0  0  0  0
   -3.7786    0.3079    0.0000 C   0  0  0  0  0  0  0  0  0  0  0  0
   -4.4329   -1.1869    0.0000 C   0  0  2  0  0  0  0  0  0  0  0  0
   -4.5998    0.2181    0.0000 C   0  0  0  0  0  0  0  0  0  0  0  0
   -4.9270   -0.5260    0.0000 C   0  0  1  0  0  0  0  0  0  0  0  0
   -4.9141   -1.8476    0.0000 C   0  0  0  0  0  0  0  0  0  0  0  0
   -5.7096   -0.7827    0.0000 C   0  0  1  0  0  0  0  0  0  0  0  0
   -5.4915    0.0834    0.0000 C   0  0  0  0  0  0  0  0  0  0  0  0
   -5.7032   -1.5974    0.0000 C   0  0  0  0  0  0  0  0  0  0  0  0
   -6.3832   -0.3015    0.0000 C   0  0  0  0  0  0  0  0  0  0  0  0
   -6.3127    0.5196    0.0000 O   0  0  0  0  0  0  0  0  0  0  0  0
   -7.1338   -0.6351    0.0000 N   0  0  0  0  0  0  0  0  0  0  0  0
   -7.8074   -0.1540    0.0000 C   0  0  0  0  0  0  0  0  0  0  0  0
   -8.2885   -0.8148    0.0000 C   0  0  0  0  0  0  0  0  0  0  0  0
   -7.3391    0.5196    0.0000 C   0  0  0  0  0  0  0  0  0  0  0  0
   -8.4810    0.3272    0.0000 C   0  0  0  0  0  0  0  0  0  0  0  0
  1  2  2  0  0  0  0
  2  3  1  0  0  0  0
  2  4  1  0  0  0  0
  5  3  1  1  0  0  0
  4  6  2  0  0  0  0
  5  7  1  0  0  0  0
  5  8  1  0  0  0  0
  7  9  1  0  0  0  0
  7 10  1  1  0  0  0
  8 11  1  0  0  0  0
  9 12  1  0  0  0  0
  9 13  1  1  0  0  0
 12 14  1  0  0  0  0
 13 15  1  0  0  0  0
 14 16  1  0  0  0  0
 14 17  1  1  0  0  0
 16 18  1  0  0  0  0
 16 19  1  1  0  0  0
 17 20  1  0  0  0  0
 18 21  1  1  0  0  0
 21 22  2  0  0  0  0
 21 23  1  0  0  0  0
 23 24  1  0  0  0  0
 24 25  1  0  0  0  0
 24 26  1  0  0  0  0
 24 27  1  0  0  0  0
  6  7  1  0  0  0  0
 12 11  1  6  0  0  0
 15 16  1  0  0  0  0
 18 20  1  0  0  0  0
M  END

>  <name>
Finasteride

>  <ROTATABLE_BONDCOUNT>
2

>  <HBDScore>
0.5

>  <dipole>
3.17

>  <logD>
3.07

>  <MPOScore>
4.840335714285715

>  <logDScore>
0.4650000000000001

>  <MW>
372.553

>  <charge_dist(7.4)>
-0.00

>  <CNS>
TRUE

>  <ArRings>
0

>  <HBD>
2

>  <BALABAN_INDEX>
1.54

>  <bpKa>
0.33

>  <TPSAScore>
1.0

>  <MWScore>
0.9103357142857142

>  <bpKaScore>
1.0

>  <logPScore>
0.9650000000000001

>  <MPO_area>
66.6

>  <TPSA>
58.20

>  <logP>
3.07

$$$$

  Mrv1722703221715202D          

 22 22  0  0  0  0            999 V2000
    0.0000    0.0000    0.0000 O   0  0  0  0  0  0  0  0  0  0  0  0
    0.1478    0.8223    0.0000 C   0  0  0  0  0  0  0  0  0  0  0  0
    0.9251    1.0986    0.0000 C   0  0  0  0  0  0  0  0  0  0  0  0
    1.1885    0.3212    0.0000 N   0  0  0  0  0  0  0  0  0  0  0  0
    0.6489    1.8888    0.0000 C   0  0  0  0  0  0  0  0  0  0  0  0
    1.7025    1.3749    0.0000 C   0  0  0  0  0  0  0  0  0  0  0  0
   -0.1735    2.0494    0.0000 O   0  0  0  0  0  0  0  0  0  0  0  0
    2.3257    0.8352    0.0000 C   0  0  0  0  0  0  0  0  0  0  0  0
    3.1031    1.1115    0.0000 C   0  0  0  0  0  0  0  0  0  0  0  0
    3.2508    1.9338    0.0000 C   0  0  0  0  0  0  0  0  0  0  0  0
    3.7262    0.5718    0.0000 C   0  0  0  0  0  0  0  0  0  0  0  0
    4.0282    2.2101    0.0000 C   0  0  0  0  0  0  0  0  0  0  0  0
    4.5036    0.8480    0.0000 C   0  0  0  0  0  0  0  0  0  0  0  0
    4.6514    1.6704    0.0000 C   0  0  0  0  0  0  0  0  0  0  0  0
    5.4288    1.9466    0.0000 C   0  0  0  0  0  0  0  0  0  0  0  0
    6.0519    1.4070    0.0000 C   0  0  0  0  0  0  0  0  0  0  0  0
    6.8293    1.6833    0.0000 C   0  0  0  0  0  0  0  0  0  0  0  0
    7.4525    1.1435    0.0000 C   0  0  0  0  0  0  0  0  0  0  0  0
    8.2299    1.4198    0.0000 C   0  0  0  0  0  0  0  0  0  0  0  0
    8.8530    0.8802    0.0000 C   0  0  0  0  0  0  0  0  0  0  0  0
    9.6304    1.1564    0.0000 C   0  0  0  0  0  0  0  0  0  0  0  0
   10.2536    0.6167    0.0000 C   0  0  0  0  0  0  0  0  0  0  0  0
  1  2  1  0  0  0  0
  2  3  1  0  0  0  0
  3  4  1  0  0  0  0
  3  5  1  0  0  0  0
  3  6  1  0  0  0  0
  5  7  1  0  0  0  0
  6  8  1  0  0  0  0
  8  9  1  0  0  0  0
  9 10  2  0  0  0  0
  9 11  1  0  0  0  0
 10 12  1  0  0  0  0
 11 13  2  0  0  0  0
 12 14  2  0  0  0  0
 14 15  1  0  0  0  0
 15 16  1  0  0  0  0
 16 17  1  0  0  0  0
 17 18  1  0  0  0  0
 18 19  1  0  0  0  0
 19 20  1  0  0  0  0
 20 21  1  0  0  0  0
 21 22  1  0  0  0  0
 13 14  1  0  0  0  0
M  END

>  <name>
Fingolimod

>  <ROTATABLE_BONDCOUNT>
12

>  <HBDScore>
0.16666666666666674

>  <dipole>
3.00

>  <logD>
2.12

>  <MPOScore>
3.8866666666666667

>  <logDScore>
0.94

>  <MW>
307.478

>  <charge_dist(7.4)>
0.99

>  <CNS>
TRUE

>  <ArRings>
1

>  <HBD>
3

>  <BALABAN_INDEX>
2.06

>  <bpKa>
9.38

>  <TPSAScore>
1.0

>  <MWScore>
1.0

>  <bpKaScore>
0.3099999999999996

>  <logPScore>
0.4700000000000002

>  <MPO_area>
45.76

>  <TPSA>
66.48

>  <logP>
4.06

$$$$

  Mrv1722703221715202D          

 28 31  0  0  0  0            999 V2000
    0.0000    0.0000    0.0000 F   0  0  0  0  0  0  0  0  0  0  0  0
    0.6080   -0.5558    0.0000 C   0  0  0  0  0  0  0  0  0  0  0  0
    1.1639    0.0654    0.0000 F   0  0  0  0  0  0  0  0  0  0  0  0
    0.0392   -1.1639    0.0000 F   0  0  0  0  0  0  0  0  0  0  0  0
    1.2161   -1.1115    0.0000 C   0  0  0  0  0  0  0  0  0  0  0  0
    2.0008   -0.8565    0.0000 C   0  0  0  0  0  0  0  0  0  0  0  0
    1.0265   -1.9157    0.0000 C   0  0  0  0  0  0  0  0  0  0  0  0
    2.6088   -1.4123    0.0000 C   0  0  0  0  0  0  0  0  0  0  0  0
    1.6346   -2.4715    0.0000 C   0  0  0  0  0  0  0  0  0  0  0  0
    3.3934   -1.1573    0.0000 N   0  0  0  0  0  0  0  0  0  0  0  0
    2.4192   -2.2165    0.0000 C   0  0  0  0  0  0  0  0  0  0  0  0
    4.0015   -1.7130    0.0000 C   0  0  0  0  0  0  0  0  0  0  0  0
    3.5700   -0.3400    0.0000 C   0  0  0  0  0  0  0  0  0  0  0  0
    4.7861   -1.4581    0.0000 C   0  0  0  0  0  0  0  0  0  0  0  0
    4.3546   -0.0850    0.0000 C   0  0  0  0  0  0  0  0  0  0  0  0
    4.9626   -0.6408    0.0000 N   0  0  0  0  0  0  0  0  0  0  0  0
    5.7472   -0.3857    0.0000 C   0  0  0  0  0  0  0  0  0  0  0  0
    6.3553   -0.9416    0.0000 C   0  0  0  0  0  0  0  0  0  0  0  0
    7.1399   -0.6865    0.0000 N   0  0  0  0  0  0  0  0  0  0  0  0
    7.3949    0.1046    0.0000 C   0  0  0  0  0  0  0  0  0  0  0  0
    7.8003   -1.1769    0.0000 C   0  0  0  0  0  0  0  0  0  0  0  0
    6.9045    0.7846    0.0000 O   0  0  0  0  0  0  0  0  0  0  0  0
    8.2187    0.1046    0.0000 N   0  0  0  0  0  0  0  0  0  0  0  0
    8.4672   -0.6865    0.0000 C   0  0  0  0  0  0  0  0  0  0  0  0
    7.8722   -1.9942    0.0000 C   0  0  0  0  0  0  0  0  0  0  0  0
    9.2191   -1.0265    0.0000 C   0  0  0  0  0  0  0  0  0  0  0  0
    8.6241   -2.3342    0.0000 C   0  0  0  0  0  0  0  0  0  0  0  0
    9.2910   -1.8438    0.0000 C   0  0  0  0  0  0  0  0  0  0  0  0
  1  2  1  0  0  0  0
  2  3  1  0  0  0  0
  2  4  1  0  0  0  0
  2  5  1  0  0  0  0
  5  6  2  0  0  0  0
  5  7  1  0  0  0  0
  6  8  1  0  0  0  0
  7  9  2  0  0  0  0
  8 10  1  0  0  0  0
  8 11  2  0  0  0  0
 10 12  1  0  0  0  0
 10 13  1  0  0  0  0
 12 14  1  0  0  0  0
 13 15  1  0  0  0  0
 14 16  1  0  0  0  0
 16 17  1  0  0  0  0
 17 18  1  0  0  0  0
 18 19  1  0  0  0  0
 19 20  1  0  0  0  0
 19 21  1  0  0  0  0
 20 22  2  0  0  0  0
 20 23  1  0  0  0  0
 21 24  2  0  0  0  0
 21 25  1  0  0  0  0
 24 26  1  0  0  0  0
 25 27  2  0  0  0  0
 26 28  2  0  0  0  0
  9 11  1  0  0  0  0
 15 16  1  0  0  0  0
 23 24  1  0  0  0  0
 27 28  1  0  0  0  0
M  END

>  <name>
Flibanserin

>  <ROTATABLE_BONDCOUNT>
5

>  <HBDScore>
0.8333333333333334

>  <dipole>
1.73

>  <logD>
3.67

>  <MPOScore>
4.3071190476190475

>  <logDScore>
0.16500000000000004

>  <MW>
390.410

>  <charge_dist(7.4)>
0.30

>  <CNS>
TRUE

>  <ArRings>
3

>  <HBD>
1

>  <BALABAN_INDEX>
1.17

>  <bpKa>
7.03

>  <TPSAScore>
0.9410000000000001

>  <MWScore>
0.7827857142857141

>  <bpKaScore>
1.0

>  <logPScore>
0.585

>  <MPO_area>
51.62

>  <TPSA>
38.82

>  <logP>
3.83

$$$$

  Mrv1722703221715202D          

 22 24  0  0  0  0            999 V2000
    0.0000    0.0000    0.0000 F   0  0  0  0  0  0  0  0  0  0  0  0
    0.3702   -0.7274    0.0000 C   0  0  0  0  0  0  0  0  0  0  0  0
   -0.0844   -1.4159    0.0000 C   0  0  0  0  0  0  0  0  0  0  0  0
    1.1886   -0.7664    0.0000 C   0  0  0  0  0  0  0  0  0  0  0  0
    0.2858   -2.1433    0.0000 C   0  0  0  0  0  0  0  0  0  0  0  0
   -0.9158   -1.3639    0.0000 C   0  0  0  0  0  0  0  0  0  0  0  0
    1.5588   -1.4938    0.0000 C   0  0  0  0  0  0  0  0  0  0  0  0
    1.1041   -2.1823    0.0000 C   0  0  0  0  0  0  0  0  0  0  0  0
   -0.9677   -2.1823    0.0000 O   0  0  0  0  0  0  0  0  0  0  0  0
   -1.7471   -1.3120    0.0000 C   0  0  0  0  0  0  0  0  0  0  0  0
   -0.8768   -0.5326    0.0000 C   0  0  0  0  0  0  0  0  0  0  0  0
    2.3771   -1.5328    0.0000 F   0  0  0  0  0  0  0  0  0  0  0  0
   -2.2017   -2.0004    0.0000 N   0  0  0  0  0  0  0  0  0  0  0  0
   -1.5782   -0.0779    0.0000 N   0  0  0  0  0  0  0  0  0  0  0  0
   -1.9095   -2.7668    0.0000 N   0  0  0  0  0  0  0  0  0  0  0  0
   -3.0331   -2.0394    0.0000 C   0  0  0  0  0  0  0  0  0  0  0  0
   -2.3577   -0.3702    0.0000 N   0  0  0  0  0  0  0  0  0  0  0  0
   -1.6302    0.7534    0.0000 C   0  0  0  0  0  0  0  0  0  0  0  0
   -2.5590   -3.2799    0.0000 C   0  0  0  0  0  0  0  0  0  0  0  0
   -3.2539   -2.8318    0.0000 N   0  0  0  0  0  0  0  0  0  0  0  0
   -2.8837    0.2793    0.0000 C   0  0  0  0  0  0  0  0  0  0  0  0
   -2.4356    0.9742    0.0000 N   0  0  0  0  0  0  0  0  0  0  0  0
  1  2  1  0  0  0  0
  2  3  2  0  0  0  0
  2  4  1  0  0  0  0
  3  5  1  0  0  0  0
  3  6  1  0  0  0  0
  4  7  2  0  0  0  0
  5  8  2  0  0  0  0
  6  9  1  0  0  0  0
  6 10  1  0  0  0  0
  6 11  1  0  0  0  0
  7 12  1  0  0  0  0
 10 13  1  0  0  0  0
 11 14  1  0  0  0  0
 13 15  1  0  0  0  0
 13 16  1  0  0  0  0
 14 17  1  0  0  0  0
 14 18  1  0  0  0  0
 15 19  2  0  0  0  0
 16 20  2  0  0  0  0
 17 21  2  0  0  0  0
 18 22  2  0  0  0  0
  7  8  1  0  0  0  0
 19 20  1  0  0  0  0
 21 22  1  0  0  0  0
M  END

>  <name>
Fluconazole

>  <ROTATABLE_BONDCOUNT>
5

>  <HBDScore>
0.8333333333333334

>  <dipole>
3.68

>  <logD>
0.56

>  <MPOScore>
5.833333333333333

>  <logDScore>
1.0

>  <MW>
306.277

>  <charge_dist(7.4)>
0.00

>  <CNS>
TRUE

>  <ArRings>
3

>  <HBD>
1

>  <BALABAN_INDEX>
1.71

>  <bpKa>
2.3

>  <TPSAScore>
1.0

>  <MWScore>
1.0

>  <bpKaScore>
1.0

>  <logPScore>
1.0

>  <MPO_area>
94.44

>  <TPSA>
81.65

>  <logP>
0.56

$$$$

  Mrv1722703221715202D          

  9  9  0  0  0  0            999 V2000
    0.0000    0.0000    0.0000 F   0  0  0  0  0  0  0  0  0  0  0  0
   -0.8018    0.1942    0.0000 C   0  0  0  0  0  0  0  0  0  0  0  0
   -1.0462    0.9835    0.0000 C   0  0  0  0  0  0  0  0  0  0  0  0
   -1.3656   -0.3947    0.0000 C   0  0  0  0  0  0  0  0  0  0  0  0
   -1.8480    1.1777    0.0000 N   0  0  0  0  0  0  0  0  0  0  0  0
   -0.4949    1.5849    0.0000 N   0  0  0  0  0  0  0  0  0  0  0  0
   -2.1675   -0.2005    0.0000 N   0  0  0  0  0  0  0  0  0  0  0  0
   -2.4118    0.5888    0.0000 C   0  0  0  0  0  0  0  0  0  0  0  0
   -3.2136    0.7830    0.0000 O   0  0  0  0  0  0  0  0  0  0  0  0
  1  2  1  0  0  0  0
  2  3  2  0  0  0  0
  2  4  1  0  0  0  0
  3  5  1  0  0  0  0
  3  6  1  0  0  0  0
  4  7  2  0  0  0  0
  5  8  1  0  0  0  0
  8  9  2  0  0  0  0
  7  8  1  0  0  0  0
M  END

>  <name>
Flucytosine

>  <ROTATABLE_BONDCOUNT>
0

>  <HBDScore>
0.5

>  <dipole>
8.79

>  <logD>
-1.01

>  <MPOScore>
5.5

>  <logDScore>
1.0

>  <MW>
129.094

>  <charge_dist(7.4)>
-0.15

>  <CNS>
TRUE

>  <ArRings>
1

>  <HBD>
2

>  <BALABAN_INDEX>
2.09

>  <bpKa>
-4.95

>  <TPSAScore>
1.0

>  <MWScore>
1.0

>  <bpKaScore>
1.0

>  <logPScore>
1.0

>  <MPO_area>
83.33

>  <TPSA>
67.48

>  <logP>
-0.95

$$$$

  Mrv1722703221715202D          

 22 23  0  0  0  0            999 V2000
    0.0000    0.0000    0.0000 F   0  0  0  0  0  0  0  0  0  0  0  0
    0.8195   -0.0911    0.0000 C   0  0  0  0  0  0  0  0  0  0  0  0
    0.9105    0.7414    0.0000 F   0  0  0  0  0  0  0  0  0  0  0  0
    0.7154   -0.9105    0.0000 F   0  0  0  0  0  0  0  0  0  0  0  0
    1.6390   -0.1821    0.0000 C   0  0  0  0  0  0  0  0  0  0  0  0
    2.1333    0.4878    0.0000 C   0  0  0  0  0  0  0  0  0  0  0  0
    1.9577   -0.9431    0.0000 C   0  0  0  0  0  0  0  0  0  0  0  0
    2.9528    0.3967    0.0000 C   0  0  0  0  0  0  0  0  0  0  0  0
    2.7772   -1.0341    0.0000 C   0  0  0  0  0  0  0  0  0  0  0  0
    3.2715   -0.3642    0.0000 C   0  0  0  0  0  0  0  0  0  0  0  0
    4.0910   -0.4553    0.0000 O   0  0  0  0  0  0  0  0  0  0  0  0
    4.5853    0.2146    0.0000 C   0  0  2  0  0  0  0  0  0  0  0  0
    5.4048    0.1236    0.0000 C   0  0  0  0  0  0  0  0  0  0  0  0
    4.2537    0.9886    0.0000 C   0  0  0  0  0  0  0  0  0  0  0  0
    5.7235   -0.6374    0.0000 C   0  0  0  0  0  0  0  0  0  0  0  0
    5.8992    0.7935    0.0000 C   0  0  0  0  0  0  0  0  0  0  0  0
    3.4211    1.0927    0.0000 C   0  0  0  0  0  0  0  0  0  0  0  0
    6.5431   -0.7284    0.0000 C   0  0  0  0  0  0  0  0  0  0  0  0
    6.7187    0.7024    0.0000 C   0  0  0  0  0  0  0  0  0  0  0  0
    3.0894    1.8667    0.0000 N   0  0  0  0  0  0  0  0  0  0  0  0
    7.0374   -0.0585    0.0000 C   0  0  0  0  0  0  0  0  0  0  0  0
    2.2569    1.9707    0.0000 C   0  0  0  0  0  0  0  0  0  0  0  0
  1  2  1  0  0  0  0
  2  3  1  0  0  0  0
  2  4  1  0  0  0  0
  2  5  1  0  0  0  0
  5  6  2  0  0  0  0
  5  7  1  0  0  0  0
  6  8  1  0  0  0  0
  7  9  2  0  0  0  0
  8 10  2  0  0  0  0
 10 11  1  0  0  0  0
 12 11  1  1  0  0  0
 12 13  1  0  0  0  0
 12 14  1  0  0  0  0
 13 15  2  0  0  0  0
 13 16  1  0  0  0  0
 14 17  1  0  0  0  0
 15 18  1  0  0  0  0
 16 19  2  0  0  0  0
 17 20  1  0  0  0  0
 18 21  2  0  0  0  0
 20 22  1  0  0  0  0
  9 10  1  0  0  0  0
 19 21  1  0  0  0  0
M  END

>  <name>
Fluoxetine

>  <ROTATABLE_BONDCOUNT>
7

>  <HBDScore>
0.8333333333333334

>  <dipole>
5.94

>  <logD>
1.83

>  <MPOScore>
3.4113333333333333

>  <logDScore>
1.0

>  <MW>
309.332

>  <charge_dist(7.4)>
1.00

>  <CNS>
TRUE

>  <ArRings>
2

>  <HBD>
1

>  <BALABAN_INDEX>
1.66

>  <bpKa>
9.8

>  <TPSAScore>
0.06300000000000008

>  <MWScore>
1.0

>  <bpKaScore>
0.09999999999999964

>  <logPScore>
0.41500000000000004

>  <MPO_area>
38.17

>  <TPSA>
21.26

>  <logP>
4.17

$$$$

  Mrv1722703221715202D          

 27 29  0  0  0  0            999 V2000
    0.0000    0.0000    0.0000 Cl  0  0  0  0  0  0  0  0  0  0  0  0
    0.3277    0.7582    0.0000 C   0  0  0  0  0  0  0  0  0  0  0  0
   -0.1606    1.4265    0.0000 C   0  0  0  0  0  0  0  0  0  0  0  0
    1.1373    0.8482    0.0000 C   0  0  0  0  0  0  0  0  0  0  0  0
    0.1671    2.1847    0.0000 C   0  0  0  0  0  0  0  0  0  0  0  0
    1.4650    1.6064    0.0000 C   0  0  0  0  0  0  0  0  0  0  0  0
   -0.4176    2.7758    0.0000 C   0  0  0  0  0  0  0  0  0  0  0  0
    0.9767    2.2746    0.0000 C   0  0  0  0  0  0  0  0  0  0  0  0
   -0.3277    3.5983    0.0000 N   0  0  0  0  0  0  0  0  0  0  0  0
   -1.2016    2.5188    0.0000 C   0  0  0  0  0  0  0  0  0  0  0  0
    1.4136    2.9750    0.0000 N   0  0  0  0  0  0  0  0  0  0  0  0
    0.3662    4.0352    0.0000 C   0  0  0  0  0  0  0  0  0  0  0  0
   -1.3687    1.7220    0.0000 C   0  0  0  0  0  0  0  0  0  0  0  0
   -1.8249    3.0650    0.0000 C   0  0  0  0  0  0  0  0  0  0  0  0
    1.1437    3.7589    0.0000 C   0  0  0  0  0  0  0  0  0  0  0  0
    2.2232    2.8851    0.0000 C   0  0  0  0  0  0  0  0  0  0  0  0
   -0.7582    1.1887    0.0000 F   0  0  0  0  0  0  0  0  0  0  0  0
   -2.1526    1.4650    0.0000 C   0  0  0  0  0  0  0  0  0  0  0  0
   -2.6088    2.8080    0.0000 C   0  0  0  0  0  0  0  0  0  0  0  0
    1.7220    4.3436    0.0000 O   0  0  0  0  0  0  0  0  0  0  0  0
    2.5381    2.1397    0.0000 C   0  0  0  0  0  0  0  0  0  0  0  0
   -2.7758    2.0112    0.0000 C   0  0  0  0  0  0  0  0  0  0  0  0
    3.3477    2.0497    0.0000 N   0  0  0  0  0  0  0  0  0  0  0  0
    3.6626    1.3044    0.0000 C   0  0  0  0  0  0  0  0  0  0  0  0
    3.8361    2.7116    0.0000 C   0  0  0  0  0  0  0  0  0  0  0  0
    4.4722    1.2145    0.0000 C   0  0  0  0  0  0  0  0  0  0  0  0
    4.6457    2.6216    0.0000 C   0  0  0  0  0  0  0  0  0  0  0  0
  1  2  1  0  0  0  0
  2  3  2  0  0  0  0
  2  4  1  0  0  0  0
  3  5  1  0  0  0  0
  4  6  2  0  0  0  0
  5  7  1  0  0  0  0
  5  8  2  0  0  0  0
  7  9  2  0  0  0  0
  7 10  1  0  0  0  0
  8 11  1  0  0  0  0
  9 12  1  0  0  0  0
 10 13  2  0  0  0  0
 10 14  1  0  0  0  0
 11 15  1  0  0  0  0
 11 16  1  0  0  0  0
 13 17  1  0  0  0  0
 13 18  1  0  0  0  0
 14 19  2  0  0  0  0
 15 20  2  0  0  0  0
 16 21  1  0  0  0  0
 18 22  2  0  0  0  0
 21 23  1  0  0  0  0
 23 24  1  0  0  0  0
 23 25  1  0  0  0  0
 24 26  1  0  0  0  0
 25 27  1  0  0  0  0
  6  8  1  0  0  0  0
 12 15  1  0  0  0  0
 19 22  1  0  0  0  0
M  END

>  <name>
Flurazepam

>  <ROTATABLE_BONDCOUNT>
6

>  <HBDScore>
1.0

>  <dipole>
4.62

>  <logD>
2.62

>  <MPOScore>
4.456357142857142

>  <logDScore>
0.69

>  <MW>
387.88

>  <charge_dist(7.4)>
0.95

>  <CNS>
TRUE

>  <ArRings>
2

>  <HBD>
0

>  <BALABAN_INDEX>
1.71

>  <bpKa>
8.71

>  <TPSAScore>
0.7954999999999999

>  <MWScore>
0.8008571428571429

>  <bpKaScore>
0.6449999999999996

>  <logPScore>
0.5249999999999999

>  <MPO_area>
54.93

>  <TPSA>
35.91

>  <logP>
3.95

$$$$

  Mrv1722703221715202D          

 18 19  0  0  0  0            999 V2000
    0.0000    0.0000    0.0000 F   0  0  0  0  0  0  0  0  0  0  0  0
   -0.3621    0.7501    0.0000 C   0  0  0  0  0  0  0  0  0  0  0  0
    0.0970    1.4356    0.0000 C   0  0  0  0  0  0  0  0  0  0  0  0
   -1.1898    0.8213    0.0000 C   0  0  0  0  0  0  0  0  0  0  0  0
    0.9118    1.3774    0.0000 C   0  0  0  0  0  0  0  0  0  0  0  0
   -0.2651    2.1857    0.0000 C   0  0  0  0  0  0  0  0  0  0  0  0
   -1.5520    1.5714    0.0000 C   0  0  0  0  0  0  0  0  0  0  0  0
    1.2610    0.6402    0.0000 C   0  0  0  0  0  0  0  0  0  0  0  0
    1.3709    2.0629    0.0000 C   0  0  0  0  0  0  0  0  0  0  0  0
   -1.0929    2.2568    0.0000 C   0  0  0  0  0  0  0  0  0  0  0  0
   -2.3797    1.6425    0.0000 C   0  0  2  0  0  0  0  0  0  0  0  0
    2.0758    0.5820    0.0000 C   0  0  0  0  0  0  0  0  0  0  0  0
    2.1857    2.0046    0.0000 C   0  0  0  0  0  0  0  0  0  0  0  0
   -2.8518    0.9700    0.0000 C   0  0  0  0  0  0  0  0  0  0  0  0
   -2.7418    2.3926    0.0000 C   0  0  0  0  0  0  0  0  0  0  0  0
    2.5349    1.2674    0.0000 C   0  0  0  0  0  0  0  0  0  0  0  0
   -2.5026    0.2328    0.0000 O   0  0  0  0  0  0  0  0  0  0  0  0
   -3.6795    1.0411    0.0000 O   0  0  0  0  0  0  0  0  0  0  0  0
  1  2  1  0  0  0  0
  2  3  2  0  0  0  0
  2  4  1  0  0  0  0
  3  5  1  0  0  0  0
  3  6  1  0  0  0  0
  4  7  2  0  0  0  0
  5  8  2  0  0  0  0
  5  9  1  0  0  0  0
  6 10  2  0  0  0  0
  7 11  1  0  0  0  0
  8 12  1  0  0  0  0
  9 13  2  0  0  0  0
 11 14  1  0  0  0  0
 11 15  1  6  0  0  0
 12 16  2  0  0  0  0
 14 17  2  0  0  0  0
 14 18  1  0  0  0  0
  7 10  1  0  0  0  0
 13 16  1  0  0  0  0
M  END

>  <name>
Flurbiprofen

>  <ROTATABLE_BONDCOUNT>
3

>  <HBDScore>
0.8333333333333334

>  <dipole>
3.41

>  <logD>
1.07

>  <MPOScore>
5.2283333333333335

>  <logDScore>
1.0

>  <MW>
244.265

>  <charge_dist(7.4)>
-1.00

>  <CNS>
TRUE

>  <ArRings>
2

>  <HBD>
1

>  <BALABAN_INDEX>
1.77

>  <bpKa>
0.0

>  <TPSAScore>
0.8649999999999999

>  <MWScore>
1.0

>  <bpKaScore>
1.0

>  <logPScore>
0.53

>  <MPO_area>
75.96

>  <TPSA>
37.30

>  <logP>
3.94

$$$$

  Mrv1722703221715202D          

 22 22  0  0  0  0            999 V2000
    0.0000    0.0000    0.0000 F   0  0  0  0  0  0  0  0  0  0  0  0
   -0.8214    0.0770    0.0000 C   0  0  0  0  0  0  0  0  0  0  0  0
   -0.8984   -0.7315    0.0000 F   0  0  0  0  0  0  0  0  0  0  0  0
   -0.7572    0.8984    0.0000 F   0  0  0  0  0  0  0  0  0  0  0  0
   -1.6428    0.1540    0.0000 C   0  0  0  0  0  0  0  0  0  0  0  0
   -2.1177   -0.5070    0.0000 C   0  0  0  0  0  0  0  0  0  0  0  0
   -1.9957    0.9048    0.0000 C   0  0  0  0  0  0  0  0  0  0  0  0
   -2.9390   -0.4299    0.0000 C   0  0  0  0  0  0  0  0  0  0  0  0
   -2.8171    0.9818    0.0000 C   0  0  0  0  0  0  0  0  0  0  0  0
   -3.2920    0.3209    0.0000 C   0  0  0  0  0  0  0  0  0  0  0  0
   -4.1134    0.3978    0.0000 C   0  0  0  0  0  0  0  0  0  0  0  0
   -4.4663    1.1486    0.0000 N   0  0  0  0  0  0  0  0  0  0  0  0
   -4.5882   -0.2631    0.0000 C   0  0  0  0  0  0  0  0  0  0  0  0
   -5.2877    1.2257    0.0000 O   0  0  0  0  0  0  0  0  0  0  0  0
   -5.4096   -0.1861    0.0000 C   0  0  0  0  0  0  0  0  0  0  0  0
   -5.6406    1.9765    0.0000 C   0  0  0  0  0  0  0  0  0  0  0  0
   -5.8845   -0.8471    0.0000 C   0  0  0  0  0  0  0  0  0  0  0  0
   -6.4620    2.0535    0.0000 C   0  0  0  0  0  0  0  0  0  0  0  0
   -6.7059   -0.7701    0.0000 C   0  0  0  0  0  0  0  0  0  0  0  0
   -6.8150    2.8043    0.0000 N   0  0  0  0  0  0  0  0  0  0  0  0
   -7.1808   -1.4310    0.0000 O   0  0  0  0  0  0  0  0  0  0  0  0
   -8.0022   -1.3540    0.0000 C   0  0  0  0  0  0  0  0  0  0  0  0
  1  2  1  0  0  0  0
  2  3  1  0  0  0  0
  2  4  1  0  0  0  0
  2  5  1  0  0  0  0
  5  6  2  0  0  0  0
  5  7  1  0  0  0  0
  6  8  1  0  0  0  0
  7  9  2  0  0  0  0
  8 10  2  0  0  0  0
 10 11  1  0  0  0  0
 11 12  2  0  0  0  0
 11 13  1  0  0  0  0
 12 14  1  0  0  0  0
 13 15  1  0  0  0  0
 14 16  1  0  0  0  0
 15 17  1  0  0  0  0
 16 18  1  0  0  0  0
 17 19  1  0  0  0  0
 18 20  1  0  0  0  0
 19 21  1  0  0  0  0
 21 22  1  0  0  0  0
  9 10  1  0  0  0  0
M  END

>  <name>
Fluvoxamine

>  <ROTATABLE_BONDCOUNT>
10

>  <HBDScore>
0.8333333333333334

>  <dipole>
2.50

>  <logD>
1.33

>  <MPOScore>
5.403333333333333

>  <logDScore>
1.0

>  <MW>
318.340

>  <charge_dist(7.4)>
0.97

>  <CNS>
TRUE

>  <ArRings>
1

>  <HBD>
1

>  <BALABAN_INDEX>
2.41

>  <bpKa>
8.86

>  <TPSAScore>
1.0

>  <MWScore>
1.0

>  <bpKaScore>
0.5700000000000003

>  <logPScore>
1.0

>  <MPO_area>
81.31

>  <TPSA>
56.84

>  <logP>
2.80

$$$$

  Mrv1722703221715202D          

 18 20  0  0  0  0            999 V2000
    0.0000    0.0000    0.0000 O   0  0  0  0  0  0  0  0  0  0  0  0
   -0.7908   -0.2250    0.0000 C   0  0  0  0  0  0  0  0  0  0  0  0
   -0.9901   -1.0159    0.0000 N   0  0  0  0  0  0  0  0  0  0  0  0
   -1.3952    0.3472    0.0000 C   0  0  0  0  0  0  0  0  0  0  0  0
   -2.1860    0.1221    0.0000 C   0  0  0  0  0  0  0  0  0  0  0  0
   -1.2087    1.1509    0.0000 C   0  0  0  0  0  0  0  0  0  0  0  0
   -2.7904    0.6944    0.0000 C   0  0  0  0  0  0  0  0  0  0  0  0
   -1.8131    1.7231    0.0000 C   0  0  0  0  0  0  0  0  0  0  0  0
   -2.6039    1.4981    0.0000 C   0  0  0  0  0  0  0  0  0  0  0  0
   -3.6133    0.6365    0.0000 C   0  0  0  0  0  0  0  0  0  0  0  0
   -3.3112    1.9288    0.0000 N   0  0  0  0  0  2  0  0  0  0  0  0
   -3.9348    1.4016    0.0000 C   0  0  0  0  0  0  0  0  0  0  0  0
   -4.1148   -0.0064    0.0000 C   0  0  0  0  0  0  0  0  0  0  0  0
   -4.7513    1.5109    0.0000 C   0  0  0  0  0  0  0  0  0  0  0  0
   -4.9313    0.1029    0.0000 C   0  0  2  0  0  0  0  0  0  0  0  0
   -5.2528    0.8680    0.0000 C   0  0  0  0  0  0  0  0  0  0  0  0
   -5.4329   -0.5401    0.0000 N   0  0  0  0  0  0  0  0  0  0  0  0
   -6.2494   -0.4307    0.0000 C   0  0  0  0  0  0  0  0  0  0  0  0
  1  2  2  0  0  0  0
  2  3  1  0  0  0  0
  2  4  1  0  0  0  0
  4  5  2  0  0  0  0
  4  6  1  0  0  0  0
  5  7  1  0  0  0  0
  6  8  2  0  0  0  0
  7  9  2  0  0  0  0
  7 10  1  0  0  0  0
  9 11  1  0  0  0  0
 10 12  2  0  0  0  0
 10 13  1  0  0  0  0
 12 14  1  0  0  0  0
 13 15  1  0  0  0  0
 14 16  1  0  0  0  0
 15 17  1  1  0  0  0
 17 18  1  0  0  0  0
  8  9  1  0  0  0  0
 11 12  1  0  0  0  0
 15 16  1  0  0  0  0
M  RAD  1  11   2
M  END

>  <name>
Frovatriptan

>  <ROTATABLE_BONDCOUNT>
2

>  <HBDScore>
0.5

>  <logD>
-1.74

>  <MPOScore>
4.5

>  <logDScore>
1.0

>  <MW>
242.302

>  <charge_dist(7.4)>
1.00

>  <CNS>
TRUE

>  <ArRings>
2

>  <HBD>
2

>  <BALABAN_INDEX>
1.69

>  <bpKa>
10.18

>  <TPSAScore>
1.0

>  <MWScore>
1.0

>  <bpKaScore>
0.0

>  <logPScore>
1.0

>  <MPO_area>
58.33

>  <TPSA>
68.01

>  <logP>
0.92

$$$$

  Mrv1722703221715202D          

 12 12  0  0  0  0            999 V2000
    0.0000    0.0000    0.0000 O   0  0  0  0  0  0  0  0  0  0  0  0
   -0.1029    0.8169    0.0000 C   0  0  0  0  0  0  0  0  0  0  0  0
    0.5468    1.3123    0.0000 O   0  0  0  0  0  0  0  0  0  0  0  0
   -0.8620    1.1450    0.0000 C   0  0  0  0  0  0  0  0  0  0  0  0
   -1.5246    0.6626    0.0000 C   0  0  0  0  0  0  0  0  0  0  0  0
   -1.9749   -0.0193    0.0000 C   0  0  0  0  0  0  0  0  0  0  0  0
   -1.9041    1.3959    0.0000 C   0  0  0  0  0  0  0  0  0  0  0  0
   -0.9328    0.1094    0.0000 C   0  0  0  0  0  0  0  0  0  0  0  0
   -2.7983    0.0322    0.0000 C   0  0  0  0  0  0  0  0  0  0  0  0
   -2.7275    1.4474    0.0000 C   0  0  0  0  0  0  0  0  0  0  0  0
   -1.1258   -0.6819    0.0000 N   0  0  0  0  0  0  0  0  0  0  0  0
   -3.1778    0.7655    0.0000 C   0  0  0  0  0  0  0  0  0  0  0  0
  1  2  2  0  0  0  0
  2  3  1  0  0  0  0
  2  4  1  0  0  0  0
  4  5  1  0  0  0  0
  5  6  1  0  0  0  0
  5  7  1  0  0  0  0
  5  8  1  0  0  0  0
  6  9  1  0  0  0  0
  7 10  1  0  0  0  0
  8 11  1  0  0  0  0
  9 12  1  0  0  0  0
 10 12  1  0  0  0  0
M  END

>  <name>
Gabapentin

>  <ROTATABLE_BONDCOUNT>
3

>  <HBDScore>
0.5

>  <dipole>
1.00

>  <logD>
-1.27

>  <MPOScore>
4.545

>  <logDScore>
1.0

>  <MW>
171.240

>  <charge_dist(7.4)>
0.00

>  <CNS>
TRUE

>  <ArRings>
0

>  <HBD>
2

>  <BALABAN_INDEX>
2.48

>  <bpKa>
9.91

>  <TPSAScore>
1.0

>  <MWScore>
1.0

>  <bpKaScore>
0.04499999999999993

>  <logPScore>
1.0

>  <MPO_area>
59.46

>  <TPSA>
63.32

>  <logP>
-1.27

$$$$

  Mrv1722703221715202D          

 21 24  0  0  0  0            999 V2000
    0.0000    0.0000    0.0000 O   0  0  0  0  0  0  0  0  0  0  0  0
   -0.4675    0.6923    0.0000 C   0  0  0  0  0  0  0  0  0  0  0  0
    0.7822    0.2337    0.0000 C   0  0  2  0  0  0  0  0  0  0  0  0
   -1.2856    0.8181    0.0000 C   0  0  0  0  0  0  0  0  0  0  0  0
    0.0360    1.3486    0.0000 C   0  0  0  0  0  0  0  0  0  0  0  0
    0.8092    1.0609    0.0000 C   0  0  2  0  0  0  0  0  0  0  0  0
    1.4655   -0.1978    0.0000 C   0  0  0  0  0  0  0  0  0  0  0  0
   -1.8071    0.1798    0.0000 O   0  0  0  0  0  0  0  0  0  0  0  0
   -1.6003    1.5914    0.0000 C   0  0  0  0  0  0  0  0  0  0  0  0
   -0.2787    2.1218    0.0000 C   0  0  0  0  0  0  0  0  0  0  0  0
    1.5284    1.4475    0.0000 C   0  0  0  0  0  0  0  0  0  0  0  0
    1.1508    1.7262    0.0000 C   0  0  0  0  0  0  0  0  0  0  0  0
    2.1847    0.1888    0.0000 C   0  0  2  0  0  0  0  0  0  0  0  0
   -2.6252    0.3057    0.0000 C   0  0  0  0  0  0  0  0  0  0  0  0
   -1.0968    2.2476    0.0000 C   0  0  0  0  0  0  0  0  0  0  0  0
    0.3506    2.5084    0.0000 C   0  0  0  0  0  0  0  0  0  0  0  0
    2.2117    1.0159    0.0000 C   0  0  0  0  0  0  0  0  0  0  0  0
    1.1957    2.2207    0.0000 C   0  0  0  0  0  0  0  0  0  0  0  0
    2.8680   -0.2428    0.0000 O   0  0  0  0  0  0  0  0  0  0  0  0
    0.8271    2.5803    0.0000 N   0  0  0  0  0  0  0  0  0  0  0  0
    1.2047    3.7311    0.0000 C   0  0  0  0  0  0  0  0  0  0  0  0
  1  2  1  0  0  0  0
  3  1  1  6  0  0  0
  2  4  2  0  0  0  0
  2  5  1  0  0  0  0
  3  6  1  0  0  0  0
  3  7  1  0  0  0  0
  4  8  1  0  0  0  0
  4  9  1  0  0  0  0
  5 10  2  0  0  0  0
  6 11  1  6  0  0  0
  6 12  1  0  0  0  0
  7 13  1  0  0  0  0
  8 14  1  0  0  0  0
  9 15  2  0  0  0  0
 10 16  1  0  0  0  0
 11 17  2  0  0  0  0
 12 18  1  0  0  0  0
 13 19  1  6  0  0  0
 16 20  1  0  0  0  0
 20 21  1  0  0  0  0
  5  6  1  0  0  0  0
 10 15  1  0  0  0  0
 13 17  1  0  0  0  0
 18 20  1  0  0  0  0
M  END

>  <name>
Galantamine

>  <ROTATABLE_BONDCOUNT>
1

>  <HBDScore>
0.8333333333333334

>  <dipole>
3.66

>  <logD>
-0.04

>  <MPOScore>
5.543333333333333

>  <logDScore>
1.0

>  <MW>
287.359

>  <charge_dist(7.4)>
0.94

>  <CNS>
TRUE

>  <ArRings>
1

>  <HBD>
1

>  <BALABAN_INDEX>
1.43

>  <bpKa>
8.58

>  <TPSAScore>
1.0

>  <MWScore>
1.0

>  <bpKaScore>
0.71

>  <logPScore>
1.0

>  <MPO_area>
85.58

>  <TPSA>
41.93

>  <logP>
1.16

$$$$

  Mrv1722703221715202D          

 18 18  0  0  0  0            999 V2000
    0.0000    0.0000    0.0000 O   0  0  0  0  0  0  0  0  0  0  0  0
    0.5966   -0.5585    0.0000 C   0  0  0  0  0  0  0  0  0  0  0  0
    0.3999   -1.3582    0.0000 O   0  0  0  0  0  0  0  0  0  0  0  0
    1.3836   -0.3110    0.0000 C   0  0  0  0  0  0  0  0  0  0  0  0
    2.1706   -0.0635    0.0000 C   0  0  0  0  0  0  0  0  0  0  0  0
    1.6185   -1.0980    0.0000 C   0  0  0  0  0  0  0  0  0  0  0  0
    1.1361    0.4887    0.0000 C   0  0  0  0  0  0  0  0  0  0  0  0
    2.7672   -0.6220    0.0000 C   0  0  0  0  0  0  0  0  0  0  0  0
    3.5542   -0.3745    0.0000 C   0  0  0  0  0  0  0  0  0  0  0  0
    4.1508   -0.9330    0.0000 O   0  0  0  0  0  0  0  0  0  0  0  0
    4.9378   -0.6855    0.0000 C   0  0  0  0  0  0  0  0  0  0  0  0
    5.5344   -1.2440    0.0000 C   0  0  0  0  0  0  0  0  0  0  0  0
    5.1219    0.1269    0.0000 C   0  0  0  0  0  0  0  0  0  0  0  0
    6.3214   -0.9965    0.0000 C   0  0  0  0  0  0  0  0  0  0  0  0
    5.3376   -2.0437    0.0000 C   0  0  0  0  0  0  0  0  0  0  0  0
    5.9089    0.3745    0.0000 C   0  0  0  0  0  0  0  0  0  0  0  0
    6.5054   -0.1841    0.0000 C   0  0  0  0  0  0  0  0  0  0  0  0
    6.0929    1.1869    0.0000 C   0  0  0  0  0  0  0  0  0  0  0  0
  1  2  2  0  0  0  0
  2  3  1  0  0  0  0
  2  4  1  0  0  0  0
  4  5  1  0  0  0  0
  4  6  1  0  0  0  0
  4  7  1  0  0  0  0
  5  8  1  0  0  0  0
  8  9  1  0  0  0  0
  9 10  1  0  0  0  0
 10 11  1  0  0  0  0
 11 12  2  0  0  0  0
 11 13  1  0  0  0  0
 12 14  1  0  0  0  0
 12 15  1  0  0  0  0
 13 16  2  0  0  0  0
 14 17  2  0  0  0  0
 16 18  1  0  0  0  0
 16 17  1  0  0  0  0
M  END

>  <name>
Gemfibrozil

>  <ROTATABLE_BONDCOUNT>
6

>  <HBDScore>
0.8333333333333334

>  <dipole>
3.73

>  <logD>
1.51

>  <MPOScore>
5.138333333333334

>  <logDScore>
1.0

>  <MW>
250.338

>  <charge_dist(7.4)>
-1.00

>  <CNS>
TRUE

>  <ArRings>
1

>  <HBD>
1

>  <BALABAN_INDEX>
2.21

>  <bpKa>
-4.84

>  <TPSAScore>
1.0

>  <MWScore>
1.0

>  <bpKaScore>
1.0

>  <logPScore>
0.30500000000000016

>  <MPO_area>
73.21

>  <TPSA>
46.53

>  <logP>
4.39

$$$$

  Mrv1722703221715202D          

 23 26  0  0  1  0            999 V2000
    0.0000    0.0000    0.0000 O   0  0  0  0  0  0  0  0  0  0  0  0
    0.1748   -0.7965    0.0000 C   0  0  0  0  0  0  0  0  0  0  0  0
   -0.4338   -1.3534    0.0000 N   0  0  0  0  0  0  0  0  0  0  0  0
    0.9519   -1.0296    0.0000 C   0  0  0  0  0  0  0  0  0  0  0  0
   -1.2239   -1.1073    0.0000 C   0  0  2  0  0  0  0  0  0  0  0  0
    1.2109   -1.8002    0.0000 N   0  0  0  0  0  0  0  0  0  0  0  0
    1.6059   -0.5310    0.0000 C   0  0  0  0  0  0  0  0  0  0  0  0
   -1.4116   -0.2979    0.0000 C   0  0  0  0  0  0  0  0  0  0  0  0
   -1.8326   -1.6642    0.0000 C   0  0  0  0  0  0  0  0  0  0  0  0
    2.0268   -1.7807    0.0000 N   0  0  0  0  0  0  0  0  0  0  0  0
    2.2729   -0.9972    0.0000 C   0  0  0  0  0  0  0  0  0  0  0  0
    1.6706    0.2979    0.0000 C   0  0  0  0  0  0  0  0  0  0  0  0
   -2.2017   -0.0518    0.0000 C   0  0  1  0  0  0  0  0  0  0  0  0
   -2.6226   -1.4181    0.0000 C   0  0  2  0  0  0  0  0  0  0  0  0
    2.5124   -2.4347    0.0000 C   0  0  0  0  0  0  0  0  0  0  0  0
    3.0111   -0.6411    0.0000 C   0  0  0  0  0  0  0  0  0  0  0  0
    2.4089    0.6540    0.0000 C   0  0  0  0  0  0  0  0  0  0  0  0
   -2.0268   -0.8483    0.0000 N   0  0  0  0  0  0  0  0  0  0  0  0
   -2.9917    0.1943    0.0000 C   0  0  0  0  0  0  0  0  0  0  0  0
   -3.4125   -1.1721    0.0000 C   0  0  0  0  0  0  0  0  0  0  0  0
    3.0758    0.1878    0.0000 C   0  0  0  0  0  0  0  0  0  0  0  0
   -1.6577   -1.0685    0.0000 C   0  0  0  0  0  0  0  0  0  0  0  0
   -3.6003   -0.3626    0.0000 C   0  0  0  0  0  0  0  0  0  0  0  0
  1  2  2  0  0  0  0
  2  3  1  0  0  0  0
  2  4  1  0  0  0  0
  5  3  1  1  0  0  0
  4  6  2  0  0  0  0
  4  7  1  0  0  0  0
  5  8  1  0  0  0  0
  5  9  1  0  0  0  0
  6 10  1  0  0  0  0
  7 11  2  0  0  0  0
  7 12  1  0  0  0  0
 13  8  1  1  0  0  0
 14  9  1  1  0  0  0
 10 15  1  0  0  0  0
 11 16  1  0  0  0  0
 12 17  2  0  0  0  0
 13 18  1  0  0  0  0
 13 19  1  0  0  0  0
 14 20  1  0  0  0  0
 16 21  2  0  0  0  0
 18 22  1  0  0  0  0
 19 23  1  0  0  0  0
 10 11  1  0  0  0  0
 14 18  1  0  0  0  0
 17 21  1  0  0  0  0
 20 23  1  0  0  0  0
M  END

>  <name>
Granisetron

>  <ROTATABLE_BONDCOUNT>
2

>  <HBDScore>
0.8333333333333334

>  <dipole>
6.79

>  <logD>
0.27

>  <MPOScore>
5.333333333333333

>  <logDScore>
1.0

>  <MW>
312.417

>  <charge_dist(7.4)>
0.98

>  <CNS>
TRUE

>  <ArRings>
2

>  <HBD>
1

>  <BALABAN_INDEX>
1.32

>  <bpKa>
9

>  <TPSAScore>
1.0

>  <MWScore>
1.0

>  <bpKaScore>
0.5

>  <logPScore>
1.0

>  <MPO_area>
79.17

>  <TPSA>
50.16

>  <logP>
1.88

$$$$

  Mrv1722703221715202D          

 14 14  0  0  0  0            999 V2000
    0.0000    0.0000    0.0000 Cl  0  0  0  0  0  0  0  0  0  0  0  0
   -0.6889    0.4571    0.0000 C   0  0  0  0  0  0  0  0  0  0  0  0
   -0.6503    1.2812    0.0000 C   0  0  0  0  0  0  0  0  0  0  0  0
   -1.4292    0.0966    0.0000 C   0  0  0  0  0  0  0  0  0  0  0  0
   -1.3391    1.7383    0.0000 C   0  0  0  0  0  0  0  0  0  0  0  0
    0.0773    1.6546    0.0000 C   0  0  0  0  0  0  0  0  0  0  0  0
   -2.1181    0.5537    0.0000 C   0  0  0  0  0  0  0  0  0  0  0  0
   -1.3005    2.5624    0.0000 Cl  0  0  0  0  0  0  0  0  0  0  0  0
   -2.0795    1.3778    0.0000 C   0  0  0  0  0  0  0  0  0  0  0  0
    0.7533    1.2104    0.0000 N   0  0  0  0  0  0  0  0  0  0  0  0
    1.4808    1.5838    0.0000 N   0  0  0  0  0  0  0  0  0  0  0  0
    2.1567    1.1395    0.0000 C   0  0  0  0  0  0  0  0  0  0  0  0
    2.8843    1.5130    0.0000 N   0  0  0  0  0  0  0  0  0  0  0  0
    2.1053    0.3283    0.0000 N   0  0  0  0  0  0  0  0  0  0  0  0
  1  2  1  0  0  0  0
  2  3  2  0  0  0  0
  2  4  1  0  0  0  0
  3  5  1  0  0  0  0
  3  6  1  0  0  0  0
  4  7  2  0  0  0  0
  5  8  1  0  0  0  0
  5  9  2  0  0  0  0
  6 10  2  0  0  0  0
 10 11  1  0  0  0  0
 11 12  2  0  0  0  0
 12 13  1  0  0  0  0
 12 14  1  0  0  0  0
  7  9  1  0  0  0  0
M  END

>  <name>
Guanabenz

>  <ROTATABLE_BONDCOUNT>
2

>  <HBDScore>
0.5

>  <dipole>
7.81

>  <logD>
1.61

>  <MPOScore>
5.5

>  <logDScore>
1.0

>  <MW>
231.08

>  <charge_dist(7.4)>
0.21

>  <CNS>
TRUE

>  <ArRings>
1

>  <HBD>
2

>  <BALABAN_INDEX>
2.26

>  <bpKa>
6.82

>  <TPSAScore>
1.0

>  <MWScore>
1.0

>  <bpKaScore>
1.0

>  <logPScore>
1.0

>  <MPO_area>
83.33

>  <TPSA>
76.76

>  <logP>
1.71

$$$$

  Mrv1722703221715202D          

 15 15  0  0  0  0            999 V2000
    0.0000    0.0000    0.0000 Cl  0  0  0  0  0  0  0  0  0  0  0  0
   -0.6966    0.4451    0.0000 C   0  0  0  0  0  0  0  0  0  0  0  0
   -0.6708    1.2707    0.0000 C   0  0  0  0  0  0  0  0  0  0  0  0
   -1.4319    0.0710    0.0000 C   0  0  0  0  0  0  0  0  0  0  0  0
   -1.3674    1.7157    0.0000 C   0  0  0  0  0  0  0  0  0  0  0  0
    0.0516    1.6577    0.0000 C   0  0  0  0  0  0  0  0  0  0  0  0
   -2.1285    0.5160    0.0000 C   0  0  0  0  0  0  0  0  0  0  0  0
   -1.3416    2.5413    0.0000 Cl  0  0  0  0  0  0  0  0  0  0  0  0
   -2.1027    1.3416    0.0000 C   0  0  0  0  0  0  0  0  0  0  0  0
    0.7353    1.2255    0.0000 C   0  0  0  0  0  0  0  0  0  0  0  0
    0.6966    0.4128    0.0000 O   0  0  0  0  0  0  0  0  0  0  0  0
    1.4577    1.6125    0.0000 N   0  0  0  0  0  0  0  0  0  0  0  0
    2.1414    1.1804    0.0000 C   0  0  0  0  0  0  0  0  0  0  0  0
    2.8638    1.5674    0.0000 N   0  0  0  0  0  0  0  0  0  0  0  0
    2.1027    0.3677    0.0000 N   0  0  0  0  0  0  0  0  0  0  0  0
  1  2  1  0  0  0  0
  2  3  2  0  0  0  0
  2  4  1  0  0  0  0
  3  5  1  0  0  0  0
  3  6  1  0  0  0  0
  4  7  2  0  0  0  0
  5  8  1  0  0  0  0
  5  9  2  0  0  0  0
  6 10  1  0  0  0  0
 10 11  2  0  0  0  0
 10 12  1  0  0  0  0
 12 13  2  0  0  0  0
 13 14  1  0  0  0  0
 13 15  1  0  0  0  0
  7  9  1  0  0  0  0
M  END

>  <name>
Guanfacine

>  <ROTATABLE_BONDCOUNT>
2

>  <HBDScore>
0.5

>  <dipole>
9.33

>  <logD>
1.34

>  <MPOScore>
5.5

>  <logDScore>
1.0

>  <MW>
246.09

>  <charge_dist(7.4)>
0.00

>  <CNS>
TRUE

>  <ArRings>
1

>  <HBD>
2

>  <BALABAN_INDEX>
2.24

>  <bpKa>
1.34

>  <TPSAScore>
1.0

>  <MWScore>
1.0

>  <bpKaScore>
1.0

>  <logPScore>
1.0

>  <MPO_area>
83.33

>  <TPSA>
81.47

>  <logP>
1.34

$$$$

  Mrv1722703221715202D          

 24 26  0  0  0  0            999 V2000
    0.0000    0.0000    0.0000 Cl  0  0  0  0  0  0  0  0  0  0  0  0
   -0.5870    0.5805    0.0000 C   0  0  0  0  0  0  0  0  0  0  0  0
   -0.3870    1.3803    0.0000 C   0  0  0  0  0  0  0  0  0  0  0  0
   -1.3868    0.3677    0.0000 C   0  0  0  0  0  0  0  0  0  0  0  0
   -0.9740    1.9608    0.0000 C   0  0  0  0  0  0  0  0  0  0  0  0
   -1.9737    0.9482    0.0000 C   0  0  0  0  0  0  0  0  0  0  0  0
   -0.6579    2.7219    0.0000 C   0  0  0  0  0  0  0  0  0  0  0  0
   -1.7738    1.7480    0.0000 C   0  0  0  0  0  0  0  0  0  0  0  0
   -1.0513    3.4508    0.0000 N   0  0  0  0  0  0  0  0  0  0  0  0
    0.1548    2.7671    0.0000 C   0  0  0  0  0  0  0  0  0  0  0  0
   -2.4446    2.2382    0.0000 N   0  0  0  0  0  0  0  0  0  0  0  0
   -1.8641    3.6056    0.0000 C   0  0  0  0  0  0  0  0  0  0  0  0
    0.5870    2.0834    0.0000 C   0  0  0  0  0  0  0  0  0  0  0  0
    0.5289    3.5024    0.0000 C   0  0  0  0  0  0  0  0  0  0  0  0
   -2.4897    3.0638    0.0000 C   0  0  0  0  0  0  0  0  0  0  0  0
   -3.1735    1.8576    0.0000 C   0  0  0  0  0  0  0  0  0  0  0  0
    1.3997    2.1285    0.0000 C   0  0  0  0  0  0  0  0  0  0  0  0
    1.3416    3.5476    0.0000 C   0  0  0  0  0  0  0  0  0  0  0  0
   -3.2057    3.4830    0.0000 O   0  0  0  0  0  0  0  0  0  0  0  0
   -3.8765    2.2962    0.0000 C   0  0  0  0  0  0  0  0  0  0  0  0
    1.7738    2.8638    0.0000 C   0  0  0  0  0  0  0  0  0  0  0  0
   -4.5795    2.7348    0.0000 F   0  0  0  0  0  0  0  0  0  0  0  0
   -3.5411    3.0444    0.0000 F   0  0  0  0  0  0  0  0  0  0  0  0
   -4.3151    1.6060    0.0000 F   0  0  0  0  0  0  0  0  0  0  0  0
  1  2  1  0  0  0  0
  2  3  2  0  0  0  0
  2  4  1  0  0  0  0
  3  5  1  0  0  0  0
  4  6  2  0  0  0  0
  5  7  1  0  0  0  0
  5  8  2  0  0  0  0
  7  9  2  0  0  0  0
  7 10  1  0  0  0  0
  8 11  1  0  0  0  0
  9 12  1  0  0  0  0
 10 13  2  0  0  0  0
 10 14  1  0  0  0  0
 11 15  1  0  0  0  0
 11 16  1  0  0  0  0
 13 17  1  0  0  0  0
 14 18  2  0  0  0  0
 15 19  2  0  0  0  0
 16 20  1  0  0  0  0
 17 21  2  0  0  0  0
 20 22  1  0  0  0  0
 20 23  1  0  0  0  0
 20 24  1  0  0  0  0
  6  8  1  0  0  0  0
 12 15  1  0  0  0  0
 18 21  1  0  0  0  0
M  END

>  <name>
Halazepam

>  <ROTATABLE_BONDCOUNT>
3

>  <HBDScore>
1.0

>  <dipole>
5.59

>  <logD>
4.03

>  <MPOScore>
4.1185

>  <logDScore>
0.0

>  <MW>
352.74

>  <charge_dist(7.4)>
0.00

>  <CNS>
TRUE

>  <ArRings>
2

>  <HBD>
0

>  <BALABAN_INDEX>
1.69

>  <bpKa>
2.33

>  <TPSAScore>
0.6335000000000002

>  <MWScore>
1.0

>  <bpKaScore>
1.0

>  <logPScore>
0.4849999999999999

>  <MPO_area>
49.01

>  <TPSA>
32.67

>  <logP>
4.03

$$$$

  Mrv1722703221715202D          

 33 35  0  0  0  0            999 V2000
    0.0000    0.0000    0.0000 Cl  0  0  0  0  0  0  0  0  0  0  0  0
    0.7602   -0.3028    0.0000 C   0  0  0  0  0  0  0  0  0  0  0  0
    0.8697   -1.1145    0.0000 C   0  0  0  0  0  0  0  0  0  0  0  0
    1.4044    0.2126    0.0000 C   0  0  0  0  0  0  0  0  0  0  0  0
    1.6298   -1.4173    0.0000 C   0  0  0  0  0  0  0  0  0  0  0  0
    0.2126   -1.6170    0.0000 C   0  0  0  0  0  0  0  0  0  0  0  0
    2.1646   -0.0902    0.0000 C   0  0  0  0  0  0  0  0  0  0  0  0
    1.7394   -2.2290    0.0000 C   0  0  0  0  0  0  0  0  0  0  0  0
    2.2741   -0.9019    0.0000 C   0  0  0  0  0  0  0  0  0  0  0  0
    0.3221   -2.4287    0.0000 C   0  0  0  0  0  0  0  0  0  0  0  0
    2.8087    0.4252    0.0000 Cl  0  0  0  0  0  0  0  0  0  0  0  0
    1.0823   -2.7315    0.0000 C   0  0  0  0  0  0  0  0  0  0  0  0
    2.4995   -2.5318    0.0000 C   0  0  0  0  0  0  0  0  0  0  0  0
   -0.3350   -2.9312    0.0000 C   0  0  1  0  0  0  0  0  0  0  0  0
    1.1918   -3.5432    0.0000 C   0  0  0  0  0  0  0  0  0  0  0  0
    2.6091   -3.3435    0.0000 C   0  0  0  0  0  0  0  0  0  0  0  0
   -0.2254   -3.7429    0.0000 O   0  0  0  0  0  0  0  0  0  0  0  0
   -1.1081   -2.6155    0.0000 C   0  0  0  0  0  0  0  0  0  0  0  0
    1.9520   -3.8459    0.0000 C   0  0  0  0  0  0  0  0  0  0  0  0
    3.3693   -3.6462    0.0000 C   0  0  0  0  0  0  0  0  0  0  0  0
   -1.7651   -3.1180    0.0000 C   0  0  0  0  0  0  0  0  0  0  0  0
    4.1294   -3.9490    0.0000 F   0  0  0  0  0  0  0  0  0  0  0  0
    3.0535   -4.4064    0.0000 F   0  0  0  0  0  0  0  0  0  0  0  0
    3.6720   -2.8732    0.0000 F   0  0  0  0  0  0  0  0  0  0  0  0
   -2.5382   -2.8023    0.0000 N   0  0  0  0  0  0  0  0  0  0  0  0
   -3.1953   -3.3048    0.0000 C   0  0  0  0  0  0  0  0  0  0  0  0
   -2.6606   -1.9777    0.0000 C   0  0  0  0  0  0  0  0  0  0  0  0
   -3.9683   -2.9891    0.0000 C   0  0  0  0  0  0  0  0  0  0  0  0
   -3.4337   -1.6621    0.0000 C   0  0  0  0  0  0  0  0  0  0  0  0
   -4.6254   -3.4916    0.0000 C   0  0  0  0  0  0  0  0  0  0  0  0
   -3.5560   -0.8375    0.0000 C   0  0  0  0  0  0  0  0  0  0  0  0
   -5.3985   -3.1760    0.0000 C   0  0  0  0  0  0  0  0  0  0  0  0
   -4.3291   -0.5218    0.0000 C   0  0  0  0  0  0  0  0  0  0  0  0
  1  2  1  0  0  0  0
  2  3  1  0  0  0  0
  2  4  2  0  0  0  0
  3  5  2  0  0  0  0
  3  6  1  0  0  0  0
  4  7  1  0  0  0  0
  5  8  1  0  0  0  0
  5  9  1  0  0  0  0
  6 10  2  0  0  0  0
  7 11  1  0  0  0  0
  8 12  2  0  0  0  0
  8 13  1  0  0  0  0
 10 14  1  0  0  0  0
 12 15  1  0  0  0  0
 13 16  2  0  0  0  0
 14 17  1  1  0  0  0
 14 18  1  0  0  0  0
 15 19  2  0  0  0  0
 16 20  1  0  0  0  0
 18 21  1  0  0  0  0
 20 22  1  0  0  0  0
 20 23  1  0  0  0  0
 20 24  1  0  0  0  0
 21 25  1  0  0  0  0
 25 26  1  0  0  0  0
 25 27  1  0  0  0  0
 26 28  1  0  0  0  0
 27 29  1  0  0  0  0
 28 30  1  0  0  0  0
 29 31  1  0  0  0  0
 30 32  1  0  0  0  0
 31 33  1  0  0  0  0
  7  9  2  0  0  0  0
 10 12  1  0  0  0  0
 16 19  1  0  0  0  0
M  END

>  <name>
Halofantrine

>  <ROTATABLE_BONDCOUNT>
11

>  <HBDScore>
0.8333333333333334

>  <dipole>
2.89

>  <logD>
5.46

>  <MPOScore>
1.0068333333333332

>  <logDScore>
0.0

>  <MW>
500.43

>  <charge_dist(7.4)>
1.00

>  <CNS>
TRUE

>  <ArRings>
3

>  <HBD>
1

>  <BALABAN_INDEX>
1.57

>  <bpKa>
10.05

>  <TPSAScore>
0.17349999999999996

>  <MWScore>
0.0

>  <bpKaScore>
0.0

>  <logPScore>
0.0

>  <MPO_area>
2.41

>  <TPSA>
23.47

>  <logP>
8.06

$$$$

  Mrv1722703221715202D          

 26 28  0  0  0  0            999 V2000
    0.0000    0.0000    0.0000 Cl  0  0  0  0  0  0  0  0  0  0  0  0
   -0.5848   -0.5719    0.0000 C   0  0  0  0  0  0  0  0  0  0  0  0
   -0.3791   -1.3558    0.0000 C   0  0  0  0  0  0  0  0  0  0  0  0
   -1.3815   -0.3534    0.0000 C   0  0  0  0  0  0  0  0  0  0  0  0
   -0.9639   -1.9277    0.0000 C   0  0  0  0  0  0  0  0  0  0  0  0
   -1.9663   -0.9253    0.0000 C   0  0  0  0  0  0  0  0  0  0  0  0
   -1.7606   -1.7092    0.0000 C   0  0  0  0  0  0  0  0  0  0  0  0
   -2.3454   -2.2811    0.0000 C   0  0  0  0  0  0  0  0  0  0  0  0
   -1.6836   -2.7438    0.0000 O   0  0  0  0  0  0  0  0  0  0  0  0
   -2.6988   -3.0201    0.0000 C   0  0  0  0  0  0  0  0  0  0  0  0
   -2.8209   -1.6064    0.0000 C   0  0  0  0  0  0  0  0  0  0  0  0
   -3.5213   -3.0843    0.0000 C   0  0  0  0  0  0  0  0  0  0  0  0
   -3.6434   -1.6707    0.0000 C   0  0  0  0  0  0  0  0  0  0  0  0
   -3.9968   -2.4096    0.0000 N   0  0  0  0  0  0  0  0  0  0  0  0
   -4.8193   -2.4739    0.0000 C   0  0  0  0  0  0  0  0  0  0  0  0
   -5.2948   -1.7992    0.0000 C   0  0  0  0  0  0  0  0  0  0  0  0
   -6.1173   -1.8634    0.0000 C   0  0  0  0  0  0  0  0  0  0  0  0
   -6.5928   -1.1887    0.0000 C   0  0  0  0  0  0  0  0  0  0  0  0
   -6.2522   -0.4370    0.0000 O   0  0  0  0  0  0  0  0  0  0  0  0
   -7.4153   -1.2530    0.0000 C   0  0  0  0  0  0  0  0  0  0  0  0
   -7.7687   -1.9920    0.0000 C   0  0  0  0  0  0  0  0  0  0  0  0
   -7.8908   -0.5783    0.0000 C   0  0  0  0  0  0  0  0  0  0  0  0
   -8.5912   -2.0562    0.0000 C   0  0  0  0  0  0  0  0  0  0  0  0
   -8.7133   -0.6425    0.0000 C   0  0  0  0  0  0  0  0  0  0  0  0
   -9.0667   -1.3815    0.0000 C   0  0  0  0  0  0  0  0  0  0  0  0
   -9.8892   -1.4458    0.0000 F   0  0  0  0  0  0  0  0  0  0  0  0
  1  2  1  0  0  0  0
  2  3  2  0  0  0  0
  2  4  1  0  0  0  0
  3  5  1  0  0  0  0
  4  6  2  0  0  0  0
  5  7  2  0  0  0  0
  7  8  1  0  0  0  0
  8  9  1  0  0  0  0
  8 10  1  0  0  0  0
  8 11  1  0  0  0  0
 10 12  1  0  0  0  0
 11 13  1  0  0  0  0
 12 14  1  0  0  0  0
 14 15  1  0  0  0  0
 15 16  1  0  0  0  0
 16 17  1  0  0  0  0
 17 18  1  0  0  0  0
 18 19  2  0  0  0  0
 18 20  1  0  0  0  0
 20 21  2  0  0  0  0
 20 22  1  0  0  0  0
 21 23  1  0  0  0  0
 22 24  2  0  0  0  0
 23 25  2  0  0  0  0
 25 26  1  0  0  0  0
  6  7  1  0  0  0  0
 13 14  1  0  0  0  0
 24 25  1  0  0  0  0
M  END

>  <name>
Haloperidol

>  <ROTATABLE_BONDCOUNT>
6

>  <HBDScore>
0.8333333333333334

>  <dipole>
5.43

>  <logD>
2.93

>  <MPOScore>
4.89997619047619

>  <logDScore>
0.5349999999999999

>  <MW>
375.87

>  <charge_dist(7.4)>
0.82

>  <CNS>
TRUE

>  <ArRings>
2

>  <HBD>
1

>  <BALABAN_INDEX>
1.32

>  <bpKa>
8.05

>  <TPSAScore>
1.0

>  <MWScore>
0.8866428571428571

>  <bpKaScore>
0.9749999999999996

>  <logPScore>
0.6699999999999999

>  <MPO_area>
67.17

>  <TPSA>
40.54

>  <logP>
3.66

$$$$

  Mrv1722703221715202D          

 26 28  0  0  0  0            999 V2000
    0.0000    0.0000    0.0000 Cl  0  0  0  0  0  0  0  0  0  0  0  0
   -0.6112    0.5545    0.0000 C   0  0  0  0  0  0  0  0  0  0  0  0
   -1.3987    0.3087    0.0000 C   0  0  0  0  0  0  0  0  0  0  0  0
   -0.4473    1.3609    0.0000 C   0  0  0  0  0  0  0  0  0  0  0  0
   -2.0099    0.8632    0.0000 C   0  0  0  0  0  0  0  0  0  0  0  0
   -1.0585    1.9153    0.0000 C   0  0  0  0  0  0  0  0  0  0  0  0
   -1.8461    1.6696    0.0000 C   0  0  0  0  0  0  0  0  0  0  0  0
   -2.4572    2.2241    0.0000 C   0  0  1  0  0  0  0  0  0  0  0  0
   -3.2448    1.9784    0.0000 N   0  0  0  0  0  0  0  0  0  0  0  0
   -2.2934    3.0306    0.0000 C   0  0  0  0  0  0  0  0  0  0  0  0
   -3.8559    2.5328    0.0000 C   0  0  0  0  0  0  0  0  0  0  0  0
   -3.4212    1.1845    0.0000 C   0  0  0  0  0  0  0  0  0  0  0  0
   -1.5184    3.2889    0.0000 C   0  0  0  0  0  0  0  0  0  0  0  0
   -2.9046    3.5850    0.0000 C   0  0  0  0  0  0  0  0  0  0  0  0
   -4.6435    2.2871    0.0000 C   0  0  0  0  0  0  0  0  0  0  0  0
   -4.2088    0.9388    0.0000 C   0  0  0  0  0  0  0  0  0  0  0  0
   -1.3546    4.0954    0.0000 C   0  0  0  0  0  0  0  0  0  0  0  0
   -2.7407    4.3915    0.0000 C   0  0  0  0  0  0  0  0  0  0  0  0
   -4.8199    1.4932    0.0000 N   0  0  0  0  0  0  0  0  0  0  0  0
   -1.9658    4.6498    0.0000 C   0  0  0  0  0  0  0  0  0  0  0  0
   -5.6075    1.2475    0.0000 C   0  0  0  0  0  0  0  0  0  0  0  0
   -6.2187    1.8020    0.0000 C   0  0  0  0  0  0  0  0  0  0  0  0
   -7.0062    1.5562    0.0000 O   0  0  0  0  0  0  0  0  0  0  0  0
   -7.6174    2.1107    0.0000 C   0  0  0  0  0  0  0  0  0  0  0  0
   -8.4049    1.8650    0.0000 C   0  0  0  0  0  0  0  0  0  0  0  0
   -9.0161    2.4194    0.0000 O   0  0  0  0  0  0  0  0  0  0  0  0
  1  2  1  0  0  0  0
  2  3  2  0  0  0  0
  2  4  1  0  0  0  0
  3  5  1  0  0  0  0
  4  6  2  0  0  0  0
  5  7  2  0  0  0  0
  7  8  1  0  0  0  0
  8  9  1  1  0  0  0
  8 10  1  0  0  0  0
  9 11  1  0  0  0  0
  9 12  1  0  0  0  0
 10 13  2  0  0  0  0
 10 14  1  0  0  0  0
 11 15  1  0  0  0  0
 12 16  1  0  0  0  0
 13 17  1  0  0  0  0
 14 18  2  0  0  0  0
 15 19  1  0  0  0  0
 17 20  2  0  0  0  0
 19 21  1  0  0  0  0
 21 22  1  0  0  0  0
 22 23  1  0  0  0  0
 23 24  1  0  0  0  0
 24 25  1  0  0  0  0
 25 26  1  0  0  0  0
  6  7  1  0  0  0  0
 16 19  1  0  0  0  0
 18 20  1  0  0  0  0
M  END

>  <name>
Hydroxyzine

>  <ROTATABLE_BONDCOUNT>
8

>  <HBDScore>
0.8333333333333334

>  <dipole>
1.20

>  <logD>
3.09

>  <MPOScore>
4.773833333333333

>  <logDScore>
0.45500000000000007

>  <MW>
374.91

>  <charge_dist(7.4)>
0.45

>  <CNS>
TRUE

>  <ArRings>
2

>  <HBD>
1

>  <BALABAN_INDEX>
1.52

>  <bpKa>
7.45

>  <TPSAScore>
0.7969999999999999

>  <MWScore>
0.8934999999999998

>  <bpKaScore>
1.0

>  <logPScore>
0.7949999999999999

>  <MPO_area>
62.54

>  <TPSA>
35.94

>  <logP>
3.41

$$$$

  Mrv1722703221715202D          

 15 15  0  0  0  0            999 V2000
    0.0000    0.0000    0.0000 O   0  0  0  0  0  0  0  0  0  0  0  0
    0.4441   -0.6758    0.0000 C   0  0  0  0  0  0  0  0  0  0  0  0
    1.2550   -0.6179    0.0000 O   0  0  0  0  0  0  0  0  0  0  0  0
    0.0708   -1.4031    0.0000 C   0  0  1  0  0  0  0  0  0  0  0  0
   -0.7530   -1.4481    0.0000 C   0  0  0  0  0  0  0  0  0  0  0  0
    0.5149   -2.0788    0.0000 C   0  0  0  0  0  0  0  0  0  0  0  0
   -1.2100   -0.7594    0.0000 C   0  0  0  0  0  0  0  0  0  0  0  0
   -1.1263   -2.1754    0.0000 C   0  0  0  0  0  0  0  0  0  0  0  0
   -2.0338   -0.8045    0.0000 C   0  0  0  0  0  0  0  0  0  0  0  0
   -1.9501   -2.2204    0.0000 C   0  0  0  0  0  0  0  0  0  0  0  0
   -2.4071   -1.5318    0.0000 C   0  0  0  0  0  0  0  0  0  0  0  0
   -3.2309   -1.5768    0.0000 C   0  0  0  0  0  0  0  0  0  0  0  0
   -3.6879   -0.8882    0.0000 C   0  0  0  0  0  0  0  0  0  0  0  0
   -4.5116   -0.9332    0.0000 C   0  0  0  0  0  0  0  0  0  0  0  0
   -3.3274   -0.1481    0.0000 C   0  0  0  0  0  0  0  0  0  0  0  0
  1  2  2  0  0  0  0
  2  3  1  0  0  0  0
  2  4  1  0  0  0  0
  4  5  1  0  0  0  0
  4  6  1  6  0  0  0
  5  7  2  0  0  0  0
  5  8  1  0  0  0  0
  7  9  1  0  0  0  0
  8 10  2  0  0  0  0
  9 11  2  0  0  0  0
 11 12  1  0  0  0  0
 12 13  1  0  0  0  0
 13 14  1  0  0  0  0
 13 15  1  0  0  0  0
 10 11  1  0  0  0  0
M  END

>  <name>
Ibuprofen

>  <ROTATABLE_BONDCOUNT>
4

>  <HBDScore>
0.8333333333333334

>  <dipole>
3.57

>  <logD>
1.34

>  <MPOScore>
5.278333333333333

>  <logDScore>
1.0

>  <MW>
206.285

>  <charge_dist(7.4)>
-1.00

>  <CNS>
TRUE

>  <ArRings>
1

>  <HBD>
1

>  <BALABAN_INDEX>
2.14

>  <bpKa>
0.0

>  <TPSAScore>
0.8649999999999999

>  <MWScore>
1.0

>  <bpKaScore>
1.0

>  <logPScore>
0.5800000000000001

>  <MPO_area>
77.49

>  <TPSA>
37.30

>  <logP>
3.84

$$$$

  Mrv1722703221715202D          

 31 34  0  0  0  0            999 V2000
    0.0000    0.0000    0.0000 F   0  0  0  0  0  0  0  0  0  0  0  0
   -0.5859   -0.5730    0.0000 C   0  0  0  0  0  0  0  0  0  0  0  0
   -0.3799   -1.3585    0.0000 C   0  0  0  0  0  0  0  0  0  0  0  0
   -1.3842   -0.3541    0.0000 C   0  0  0  0  0  0  0  0  0  0  0  0
   -0.9658   -1.9315    0.0000 C   0  0  0  0  0  0  0  0  0  0  0  0
   -1.9701   -0.9271    0.0000 C   0  0  0  0  0  0  0  0  0  0  0  0
   -0.9271   -2.7427    0.0000 O   0  0  0  0  0  0  0  0  0  0  0  0
   -1.7641   -1.7126    0.0000 C   0  0  0  0  0  0  0  0  0  0  0  0
   -1.6997   -3.0324    0.0000 N   0  0  0  0  0  0  0  0  0  0  0  0
   -2.2148   -2.3950    0.0000 C   0  0  0  0  0  0  0  0  0  0  0  0
   -3.0388   -2.4337    0.0000 C   0  0  0  0  0  0  0  0  0  0  0  0
   -3.4187   -3.1548    0.0000 C   0  0  0  0  0  0  0  0  0  0  0  0
   -3.4895   -1.7384    0.0000 C   0  0  0  0  0  0  0  0  0  0  0  0
   -4.2428   -3.1934    0.0000 C   0  0  0  0  0  0  0  0  0  0  0  0
   -4.3136   -1.7770    0.0000 C   0  0  0  0  0  0  0  0  0  0  0  0
   -4.6935   -2.4980    0.0000 N   0  0  0  0  0  0  0  0  0  0  0  0
   -5.5176   -2.5367    0.0000 C   0  0  0  0  0  0  0  0  0  0  0  0
   -5.9683   -1.8414    0.0000 C   0  0  0  0  0  0  0  0  0  0  0  0
   -6.7924   -1.8800    0.0000 C   0  0  0  0  0  0  0  0  0  0  0  0
   -7.2431   -1.1846    0.0000 O   0  0  0  0  0  0  0  0  0  0  0  0
   -8.0672   -1.2233    0.0000 C   0  0  0  0  0  0  0  0  0  0  0  0
   -8.4470   -1.9443    0.0000 C   0  0  0  0  0  0  0  0  0  0  0  0
   -8.5179   -0.5279    0.0000 C   0  0  0  0  0  0  0  0  0  0  0  0
   -8.0092   -2.6268    0.0000 O   0  0  0  0  0  0  0  0  0  0  0  0
   -9.2711   -1.9830    0.0000 C   0  0  0  0  0  0  0  0  0  0  0  0
   -9.3420   -0.5666    0.0000 C   0  0  0  0  0  0  0  0  0  0  0  0
   -8.3891   -3.3479    0.0000 C   0  0  0  0  0  0  0  0  0  0  0  0
   -9.7218   -1.2877    0.0000 C   0  0  0  0  0  0  0  0  0  0  0  0
  -10.5459   -1.3263    0.0000 C   0  0  0  0  0  0  0  0  0  0  0  0
  -10.9258   -2.0474    0.0000 O   0  0  0  0  0  0  0  0  0  0  0  0
  -10.9966   -0.6309    0.0000 C   0  0  0  0  0  0  0  0  0  0  0  0
  1  2  1  0  0  0  0
  2  3  2  0  0  0  0
  2  4  1  0  0  0  0
  3  5  1  0  0  0  0
  4  6  2  0  0  0  0
  5  7  1  0  0  0  0
  5  8  2  0  0  0  0
  7  9  1  0  0  0  0
  8 10  1  0  0  0  0
 10 11  1  0  0  0  0
 11 12  1  0  0  0  0
 11 13  1  0  0  0  0
 12 14  1  0  0  0  0
 13 15  1  0  0  0  0
 14 16  1  0  0  0  0
 16 17  1  0  0  0  0
 17 18  1  0  0  0  0
 18 19  1  0  0  0  0
 19 20  1  0  0  0  0
 20 21  1  0  0  0  0
 21 22  2  0  0  0  0
 21 23  1  0  0  0  0
 22 24  1  0  0  0  0
 22 25  1  0  0  0  0
 23 26  2  0  0  0  0
 24 27  1  0  0  0  0
 25 28  2  0  0  0  0
 28 29  1  0  0  0  0
 29 30  2  0  0  0  0
 29 31  1  0  0  0  0
  6  8  1  0  0  0  0
  9 10  2  0  0  0  0
 15 16  1  0  0  0  0
 26 28  1  0  0  0  0
M  END

>  <name>
Iloperidone

>  <ROTATABLE_BONDCOUNT>
8

>  <HBDScore>
1.0

>  <dipole>
6.32

>  <logD>
2.60

>  <MPOScore>
5.115085714285714

>  <logDScore>
0.7

>  <MW>
426.488

>  <charge_dist(7.4)>
0.76

>  <CNS>
TRUE

>  <ArRings>
3

>  <HBD>
0

>  <BALABAN_INDEX>
0.98

>  <bpKa>
7.91

>  <TPSAScore>
1.0

>  <MWScore>
0.5250857142857144

>  <bpKaScore>
1.0

>  <logPScore>
0.8899999999999999

>  <MPO_area>
73.43

>  <TPSA>
64.80

>  <logP>
3.22

$$$$

  Mrv1722703221715202D          

 25 27  0  0  0  0            999 V2000
    0.0000    0.0000    0.0000 Cl  0  0  0  0  0  0  0  0  0  0  0  0
   -0.7473    0.3543    0.0000 C   0  0  0  0  0  0  0  0  0  0  0  0
   -1.4237   -0.1095    0.0000 C   0  0  0  0  0  0  0  0  0  0  0  0
   -0.8246    1.1789    0.0000 C   0  0  0  0  0  0  0  0  0  0  0  0
   -2.1710    0.2448    0.0000 C   0  0  0  0  0  0  0  0  0  0  0  0
   -1.5719    1.5332    0.0000 C   0  0  0  0  0  0  0  0  0  0  0  0
   -2.2483    1.0694    0.0000 C   0  0  0  0  0  0  0  0  0  0  0  0
   -2.9956    1.4237    0.0000 C   0  0  0  0  0  0  0  0  0  0  0  0
   -3.0729    2.2483    0.0000 O   0  0  0  0  0  0  0  0  0  0  0  0
   -3.6721    0.9599    0.0000 N   0  0  0  0  0  0  0  0  0  0  0  0
   -3.6978    0.1482    0.0000 C   0  0  0  0  0  0  0  0  0  0  0  0
   -4.4515    1.2369    0.0000 C   0  0  0  0  0  0  0  0  0  0  0  0
   -4.4902   -0.0838    0.0000 C   0  0  0  0  0  0  0  0  0  0  0  0
   -3.1051   -0.4059    0.0000 C   0  0  0  0  0  0  0  0  0  0  0  0
   -4.9541    0.5927    0.0000 C   0  0  0  0  0  0  0  0  0  0  0  0
   -4.6963    2.0293    0.0000 C   0  0  0  0  0  0  0  0  0  0  0  0
   -4.6834   -0.8761    0.0000 C   0  0  0  0  0  0  0  0  0  0  0  0
   -3.2984   -1.1983    0.0000 C   0  0  0  0  0  0  0  0  0  0  0  0
   -5.7787    0.6185    0.0000 C   0  0  0  0  0  0  0  0  0  0  0  0
   -4.0908   -1.4302    0.0000 C   0  0  0  0  0  0  0  0  0  0  0  0
   -6.1780    1.3400    0.0000 C   0  0  0  0  0  0  0  0  0  0  0  0
   -4.2841   -2.2225    0.0000 O   0  0  0  0  0  0  0  0  0  0  0  0
   -5.7593    2.0486    0.0000 O   0  0  0  0  0  0  0  0  0  0  0  0
   -7.0026    1.3658    0.0000 O   0  0  0  0  0  0  0  0  0  0  0  0
   -5.0764   -2.4545    0.0000 C   0  0  0  0  0  0  0  0  0  0  0  0
  1  2  1  0  0  0  0
  2  3  2  0  0  0  0
  2  4  1  0  0  0  0
  3  5  1  0  0  0  0
  4  6  2  0  0  0  0
  5  7  2  0  0  0  0
  7  8  1  0  0  0  0
  8  9  2  0  0  0  0
  8 10  1  0  0  0  0
 10 11  1  0  0  0  0
 10 12  1  0  0  0  0
 11 13  2  0  0  0  0
 11 14  1  0  0  0  0
 12 15  2  0  0  0  0
 12 16  1  0  0  0  0
 13 17  1  0  0  0  0
 14 18  2  0  0  0  0
 15 19  1  0  0  0  0
 17 20  2  0  0  0  0
 19 21  1  0  0  0  0
 20 22  1  0  0  0  0
 21 23  2  0  0  0  0
 21 24  1  0  0  0  0
 22 25  1  0  0  0  0
  6  7  1  0  0  0  0
 13 15  1  0  0  0  0
 18 20  1  0  0  0  0
M  END

>  <name>
Indomethacin

>  <ROTATABLE_BONDCOUNT>
4

>  <HBDScore>
0.8333333333333334

>  <dipole>
6.28

>  <logD>
0.26

>  <MPOScore>
5.568333333333333

>  <logDScore>
1.0

>  <MW>
357.79

>  <charge_dist(7.4)>
-1.00

>  <CNS>
TRUE

>  <ArRings>
3

>  <HBD>
1

>  <BALABAN_INDEX>
1.56

>  <bpKa>
-2.93

>  <TPSAScore>
1.0

>  <MWScore>
1.0

>  <bpKaScore>
1.0

>  <logPScore>
0.7350000000000001

>  <MPO_area>
86.35

>  <TPSA>
68.53

>  <logP>
3.53

$$$$

  Mrv1722703221715202D          

 17 18  0  0  0  0            999 V2000
    0.0000    0.0000    0.0000 O   0  0  0  0  0  0  0  0  0  0  0  0
   -0.1623   -0.8046    0.0000 C   0  0  0  0  0  0  0  0  0  0  0  0
    0.4542   -1.3367    0.0000 N   0  0  0  0  0  0  0  0  0  0  0  0
   -0.9474   -1.0642    0.0000 C   0  0  0  0  0  0  0  0  0  0  0  0
    1.2265   -1.0642    0.0000 N   0  0  0  0  0  0  0  0  0  0  0  0
   -1.1940   -1.8429    0.0000 N   0  0  0  0  0  0  0  0  0  0  0  0
   -1.6288   -0.5840    0.0000 C   0  0  0  0  0  0  0  0  0  0  0  0
    1.8429   -1.5963    0.0000 C   0  0  0  0  0  0  0  0  0  0  0  0
   -2.0246   -1.8494    0.0000 O   0  0  0  0  0  0  0  0  0  0  0  0
   -2.2971   -1.0707    0.0000 C   0  0  0  0  0  0  0  0  0  0  0  0
    2.6151   -1.3238    0.0000 C   0  0  0  0  0  0  0  0  0  0  0  0
   -3.0888   -0.8241    0.0000 C   0  0  0  0  0  0  0  0  0  0  0  0
    3.2316   -1.8559    0.0000 C   0  0  0  0  0  0  0  0  0  0  0  0
    2.7644   -0.5062    0.0000 C   0  0  0  0  0  0  0  0  0  0  0  0
    4.0038   -1.5833    0.0000 C   0  0  0  0  0  0  0  0  0  0  0  0
    3.5365   -0.2336    0.0000 C   0  0  0  0  0  0  0  0  0  0  0  0
    4.1530   -0.7657    0.0000 C   0  0  0  0  0  0  0  0  0  0  0  0
  1  2  2  0  0  0  0
  2  3  1  0  0  0  0
  2  4  1  0  0  0  0
  3  5  1  0  0  0  0
  4  6  2  0  0  0  0
  4  7  1  0  0  0  0
  5  8  1  0  0  0  0
  6  9  1  0  0  0  0
  7 10  2  0  0  0  0
  8 11  1  0  0  0  0
 10 12  1  0  0  0  0
 11 13  2  0  0  0  0
 11 14  1  0  0  0  0
 13 15  1  0  0  0  0
 14 16  2  0  0  0  0
 15 17  2  0  0  0  0
  9 10  1  0  0  0  0
 16 17  1  0  0  0  0
M  END

>  <name>
Isocarboxazid

>  <ROTATABLE_BONDCOUNT>
4

>  <HBDScore>
0.5

>  <dipole>
4.37

>  <logD>
1.43

>  <MPOScore>
5.5

>  <logDScore>
1.0

>  <MW>
231.255

>  <charge_dist(7.4)>
-0.00

>  <CNS>
TRUE

>  <ArRings>
2

>  <HBD>
2

>  <BALABAN_INDEX>
1.57

>  <bpKa>
2.83

>  <TPSAScore>
1.0

>  <MWScore>
1.0

>  <bpKaScore>
1.0

>  <logPScore>
1.0

>  <MPO_area>
83.33

>  <TPSA>
67.16

>  <logP>
1.43

$$$$

  Mrv1722703221715202D          

 22 22  0  0  0  0            999 V2000
    0.0000    0.0000    0.0000 O   0  0  0  0  0  0  0  0  0  0  0  0
   -0.7093   -0.4295    0.0000 C   0  0  0  0  0  0  0  0  0  0  0  0
   -1.4447   -0.0325    0.0000 O   0  0  0  0  0  0  0  0  0  0  0  0
   -0.6898   -1.2495    0.0000 C   0  0  0  0  0  0  0  0  0  0  0  0
    0.0325   -1.6334    0.0000 C   0  0  0  0  0  0  0  0  0  0  0  0
    0.7288   -1.1909    0.0000 C   0  0  0  0  0  0  0  0  0  0  0  0
    0.0520   -2.4533    0.0000 C   0  0  0  0  0  0  0  0  0  0  0  0
    1.4512   -1.5748    0.0000 C   0  0  0  0  0  0  0  0  0  0  0  0
    2.1475   -1.1323    0.0000 C   0  0  0  0  0  0  0  0  0  0  0  0
    2.8698   -1.5163    0.0000 C   0  0  0  0  0  0  0  0  0  0  0  0
    3.5661   -1.0737    0.0000 C   0  0  0  0  0  0  0  0  0  0  0  0
    2.8893   -2.3362    0.0000 C   0  0  0  0  0  0  0  0  0  0  0  0
    4.2885   -1.4577    0.0000 C   0  0  0  0  0  0  0  0  0  0  0  0
    4.9848   -1.0152    0.0000 C   0  0  0  0  0  0  0  0  0  0  0  0
    4.9523   -0.1822    0.0000 C   0  0  0  0  0  0  0  0  0  0  0  0
    5.7071   -1.3991    0.0000 C   0  0  0  0  0  0  0  0  0  0  0  0
    5.6486    0.2603    0.0000 C   0  0  0  0  0  0  0  0  0  0  0  0
    4.2169    0.2148    0.0000 C   0  0  0  0  0  0  0  0  0  0  0  0
    6.4034   -0.9566    0.0000 C   0  0  0  0  0  0  0  0  0  0  0  0
    6.2538   -2.0108    0.0000 C   0  0  0  0  0  0  0  0  0  0  0  0
    5.1865   -2.0434    0.0000 C   0  0  0  0  0  0  0  0  0  0  0  0
    6.3709   -0.1237    0.0000 C   0  0  0  0  0  0  0  0  0  0  0  0
  1  2  2  0  0  0  0
  2  3  1  0  0  0  0
  2  4  1  0  0  0  0
  4  5  2  0  0  0  0
  5  6  1  0  0  0  0
  5  7  1  0  0  0  0
  6  8  2  0  0  0  0
  8  9  1  0  0  0  0
  9 10  2  0  0  0  0
 10 11  1  0  0  0  0
 10 12  1  0  0  0  0
 11 13  2  0  0  0  0
 13 14  1  0  0  0  0
 14 15  2  0  0  0  0
 14 16  1  0  0  0  0
 15 17  1  0  0  0  0
 15 18  1  0  0  0  0
 16 19  1  0  0  0  0
 16 20  1  0  0  0  0
 16 21  1  0  0  0  0
 17 22  1  0  0  0  0
 19 22  1  0  0  0  0
M  END

>  <name>
Isotretinoin

>  <ROTATABLE_BONDCOUNT>
5

>  <HBDScore>
0.8333333333333334

>  <dipole>
11.61

>  <logD>
2.64

>  <MPOScore>
4.378333333333333

>  <logDScore>
0.6799999999999999

>  <MW>
300.442

>  <charge_dist(7.4)>
-1.00

>  <CNS>
TRUE

>  <ArRings>
0

>  <HBD>
1

>  <BALABAN_INDEX>
2.23

>  <bpKa>
0.0

>  <TPSAScore>
0.8649999999999999

>  <MWScore>
1.0

>  <bpKaScore>
1.0

>  <logPScore>
0.0

>  <MPO_area>
52.54

>  <TPSA>
37.30

>  <logP>
5.01

$$$$

  Mrv1722703221715202D          

 27 29  0  0  0  0            999 V2000
    0.0000    0.0000    0.0000 O   0  0  0  0  0  0  0  0  0  0  0  0
    0.1678    0.8135    0.0000 C   0  0  0  0  0  0  0  0  0  0  0  0
    0.9427    1.0718    0.0000 O   0  0  0  0  0  0  0  0  0  0  0  0
   -0.4520    1.3752    0.0000 C   0  0  0  0  0  0  0  0  0  0  0  0
    1.5496    0.5230    0.0000 C   0  0  0  0  0  0  0  0  0  0  0  0
   -0.2841    2.1888    0.0000 C   0  0  0  0  0  0  0  0  0  0  0  0
   -1.2396    1.1299    0.0000 C   0  0  2  0  0  0  0  0  0  0  0  0
    2.3244    0.7812    0.0000 C   0  0  0  0  0  0  0  0  0  0  0  0
    1.3688   -0.2776    0.0000 C   0  0  0  0  0  0  0  0  0  0  0  0
   -0.9039    2.7504    0.0000 N   0  0  0  0  0  0  0  0  0  0  0  0
    0.4907    2.4470    0.0000 C   0  0  0  0  0  0  0  0  0  0  0  0
   -1.8595    1.6916    0.0000 C   0  0  0  0  0  0  0  0  0  0  0  0
   -1.4204    0.3293    0.0000 C   0  0  0  0  0  0  0  0  0  0  0  0
   -1.6916    2.5051    0.0000 C   0  0  0  0  0  0  0  0  0  0  0  0
   -2.6471    1.4462    0.0000 C   0  0  0  0  0  0  0  0  0  0  0  0
   -2.2081    0.0839    0.0000 C   0  0  0  0  0  0  0  0  0  0  0  0
   -0.8135   -0.2195    0.0000 C   0  0  0  0  0  0  0  0  0  0  0  0
   -2.3114    3.0668    0.0000 C   0  0  0  0  0  0  0  0  0  0  0  0
   -2.8667    1.0137    0.0000 O   0  0  0  0  0  0  0  0  0  0  0  0
   -3.2669    2.0080    0.0000 O   0  0  0  0  0  0  0  0  0  0  0  0
   -2.9313    0.5036    0.0000 N   0  0  0  0  0  0  0  0  0  0  0  0
   -2.3889   -0.7167    0.0000 C   0  0  0  0  0  0  0  0  0  0  0  0
   -0.9943   -1.0201    0.0000 C   0  0  0  0  0  0  0  0  0  0  0  0
   -4.0547    1.7626    0.0000 C   0  0  0  0  0  0  0  0  0  0  0  0
   -3.5511   -0.0388    0.0000 O   0  0  0  0  0  0  0  0  0  0  0  0
   -3.2153   -0.7941    0.0000 N   0  0  0  0  0  0  0  0  0  0  0  0
   -1.7820   -1.2655    0.0000 C   0  0  0  0  0  0  0  0  0  0  0  0
  1  2  2  0  0  0  0
  2  3  1  0  0  0  0
  2  4  1  0  0  0  0
  3  5  1  0  0  0  0
  4  6  2  0  0  0  0
  4  7  1  0  0  0  0
  5  8  1  0  0  0  0
  5  9  1  0  0  0  0
  6 10  1  0  0  0  0
  6 11  1  0  0  0  0
  7 12  1  0  0  0  0
  7 13  1  1  0  0  0
 10 14  1  0  0  0  0
 12 15  1  0  0  0  0
 13 16  1  0  0  0  0
 13 17  2  0  0  0  0
 14 18  1  0  0  0  0
 15 19  2  0  0  0  0
 15 20  1  0  0  0  0
 16 21  2  0  0  0  0
 16 22  1  0  0  0  0
 17 23  1  0  0  0  0
 20 24  1  0  0  0  0
 21 25  1  0  0  0  0
 22 26  2  0  0  0  0
 22 27  1  0  0  0  0
 12 14  2  0  0  0  0
 23 27  2  0  0  0  0
 25 26  1  0  0  0  0
M  END

>  <name>
Isradipine

>  <ROTATABLE_BONDCOUNT>
6

>  <HBDScore>
0.8333333333333334

>  <dipole>
2.67

>  <logD>
2.00

>  <MPOScore>
5.300288095238096

>  <logDScore>
1.0

>  <MW>
371.393

>  <charge_dist(7.4)>
0.00

>  <CNS>
TRUE

>  <ArRings>
2

>  <HBD>
1

>  <BALABAN_INDEX>
1.89

>  <bpKa>
-3.35

>  <TPSAScore>
0.5483333333333335

>  <MWScore>
0.9186214285714288

>  <bpKaScore>
1.0

>  <logPScore>
1.0

>  <MPO_area>
78.16

>  <TPSA>
103.55

>  <logP>
2.00

$$$$

  Mrv1722703221715202D          

 19 20  0  0  0  0            999 V2000
    0.0000    0.0000    0.0000 O   0  0  0  0  0  0  0  0  0  0  0  0
   -0.4378   -0.6992    0.0000 C   0  0  0  0  0  0  0  0  0  0  0  0
   -1.2743   -0.6731    0.0000 C   0  0  0  0  0  0  0  0  0  0  0  0
   -0.0458   -1.4246    0.0000 C   0  0  0  0  0  0  0  0  0  0  0  0
   -1.7121   -1.3723    0.0000 C   0  0  0  0  0  0  0  0  0  0  0  0
   -1.6795    0.0654    0.0000 C   0  0  0  0  0  0  0  0  0  0  0  0
   -0.4836   -2.1239    0.0000 C   0  0  0  0  0  0  0  0  0  0  0  0
    0.7776   -1.4377    0.0000 C   0  0  0  0  0  0  0  0  0  0  0  0
   -2.5486   -1.3462    0.0000 C   0  0  0  0  0  0  0  0  0  0  0  0
   -2.5160    0.0915    0.0000 C   0  0  0  0  0  0  0  0  0  0  0  0
   -0.0915   -2.8493    0.0000 C   0  0  0  0  0  0  0  0  0  0  0  0
    1.1698   -2.1631    0.0000 C   0  0  0  0  0  0  0  0  0  0  0  0
   -2.9538   -0.6077    0.0000 C   0  0  0  0  0  0  0  0  0  0  0  0
   -2.9865   -2.0454    0.0000 C   0  0  2  0  0  0  0  0  0  0  0  0
    0.7319   -2.8623    0.0000 C   0  0  0  0  0  0  0  0  0  0  0  0
   -2.5944   -2.7709    0.0000 C   0  0  0  0  0  0  0  0  0  0  0  0
   -3.8229   -2.0193    0.0000 C   0  0  0  0  0  0  0  0  0  0  0  0
   -1.7710   -2.7839    0.0000 O   0  0  0  0  0  0  0  0  0  0  0  0
   -3.0322   -3.4701    0.0000 O   0  0  0  0  0  0  0  0  0  0  0  0
  1  2  2  0  0  0  0
  2  3  1  0  0  0  0
  2  4  1  0  0  0  0
  3  5  2  0  0  0  0
  3  6  1  0  0  0  0
  4  7  2  0  0  0  0
  4  8  1  0  0  0  0
  5  9  1  0  0  0  0
  6 10  2  0  0  0  0
  7 11  1  0  0  0  0
  8 12  2  0  0  0  0
  9 13  2  0  0  0  0
  9 14  1  0  0  0  0
 11 15  2  0  0  0  0
 14 16  1  0  0  0  0
 14 17  1  6  0  0  0
 16 18  2  0  0  0  0
 16 19  1  0  0  0  0
 10 13  1  0  0  0  0
 12 15  1  0  0  0  0
M  END

>  <name>
Ketoprofen

>  <ROTATABLE_BONDCOUNT>
4

>  <HBDScore>
0.8333333333333334

>  <dipole>
6.29

>  <logD>
0.39

>  <MPOScore>
5.528333333333333

>  <logDScore>
1.0

>  <MW>
254.285

>  <charge_dist(7.4)>
-1.00

>  <CNS>
TRUE

>  <ArRings>
2

>  <HBD>
1

>  <BALABAN_INDEX>
1.70

>  <bpKa>
-7.46

>  <TPSAScore>
1.0

>  <MWScore>
1.0

>  <bpKaScore>
1.0

>  <logPScore>
0.6950000000000001

>  <MPO_area>
85.12

>  <TPSA>
54.37

>  <logP>
3.61

$$$$

  Mrv1722703221715202D          

 18 18  0  0  0  0            999 V2000
    0.0000    0.0000    0.0000 O   0  0  0  0  0  0  0  0  0  0  0  0
   -0.0129    0.8274    0.0000 C   0  0  0  0  0  0  0  0  0  0  0  0
    0.6916    1.2475    0.0000 N   0  0  0  0  0  0  0  0  0  0  0  0
   -0.7304    1.2410    0.0000 C   0  0  1  0  0  0  0  0  0  0  0  0
    1.3962    0.8467    0.0000 C   0  0  0  0  0  0  0  0  0  0  0  0
   -0.7433    2.0684    0.0000 N   0  0  0  0  0  0  0  0  0  0  0  0
   -1.4479    0.8338    0.0000 C   0  0  0  0  0  0  0  0  0  0  0  0
    2.1007    1.2669    0.0000 C   0  0  0  0  0  0  0  0  0  0  0  0
   -1.4608    2.4820    0.0000 C   0  0  0  0  0  0  0  0  0  0  0  0
   -2.1653    1.2475    0.0000 O   0  0  0  0  0  0  0  0  0  0  0  0
    2.0878    2.0942    0.0000 C   0  0  0  0  0  0  0  0  0  0  0  0
    2.8053    0.8661    0.0000 C   0  0  0  0  0  0  0  0  0  0  0  0
   -2.1783    2.0748    0.0000 O   0  0  0  0  0  0  0  0  0  0  0  0
   -1.4737    3.3094    0.0000 C   0  0  0  0  0  0  0  0  0  0  0  0
   -2.8828    0.8403    0.0000 C   0  0  0  0  0  0  0  0  0  0  0  0
    2.7923    2.5144    0.0000 C   0  0  0  0  0  0  0  0  0  0  0  0
    3.5098    1.2863    0.0000 C   0  0  0  0  0  0  0  0  0  0  0  0
    3.4969    2.1136    0.0000 C   0  0  0  0  0  0  0  0  0  0  0  0
  1  2  2  0  0  0  0
  2  3  1  0  0  0  0
  2  4  1  0  0  0  0
  3  5  1  0  0  0  0
  4  6  1  6  0  0  0
  4  7  1  0  0  0  0
  5  8  1  0  0  0  0
  6  9  1  0  0  0  0
  7 10  1  0  0  0  0
  8 11  2  0  0  0  0
  8 12  1  0  0  0  0
  9 13  2  0  0  0  0
  9 14  1  0  0  0  0
 10 15  1  0  0  0  0
 11 16  1  0  0  0  0
 12 17  2  0  0  0  0
 16 18  2  0  0  0  0
 17 18  1  0  0  0  0
M  END

>  <name>
Lacosamide

>  <ROTATABLE_BONDCOUNT>
6

>  <HBDScore>
0.5

>  <dipole>
8.36

>  <logD>
-0.02

>  <MPOScore>
5.5

>  <logDScore>
1.0

>  <MW>
250.298

>  <charge_dist(7.4)>
-0.00

>  <CNS>
TRUE

>  <ArRings>
1

>  <HBD>
2

>  <BALABAN_INDEX>
2.28

>  <bpKa>
-2

>  <TPSAScore>
1.0

>  <MWScore>
1.0

>  <bpKaScore>
1.0

>  <logPScore>
1.0

>  <MPO_area>
83.33

>  <TPSA>
67.43

>  <logP>
-0.02

$$$$

  Mrv1722703221715202D          

 16 17  0  0  0  0            999 V2000
    0.0000    0.0000    0.0000 Cl  0  0  0  0  0  0  0  0  0  0  0  0
    0.2888   -0.7637    0.0000 C   0  0  0  0  0  0  0  0  0  0  0  0
    1.0975   -0.8921    0.0000 C   0  0  0  0  0  0  0  0  0  0  0  0
   -0.2375   -1.3991    0.0000 C   0  0  0  0  0  0  0  0  0  0  0  0
    1.6109   -0.2439    0.0000 Cl  0  0  0  0  0  0  0  0  0  0  0  0
    1.3863   -1.6558    0.0000 C   0  0  0  0  0  0  0  0  0  0  0  0
   -1.0590   -1.2579    0.0000 C   0  0  0  0  0  0  0  0  0  0  0  0
    0.0513   -2.1629    0.0000 C   0  0  0  0  0  0  0  0  0  0  0  0
    0.8600   -2.2912    0.0000 C   0  0  0  0  0  0  0  0  0  0  0  0
   -1.3606   -0.4814    0.0000 N   0  0  0  0  0  0  0  0  0  0  0  0
   -1.5852   -1.8933    0.0000 C   0  0  0  0  0  0  0  0  0  0  0  0
   -2.1821   -0.3402    0.0000 N   0  0  0  0  0  0  0  0  0  0  0  0
   -2.4068   -1.7521    0.0000 N   0  0  0  0  0  0  0  0  0  0  0  0
   -1.2964   -2.6571    0.0000 N   0  0  0  0  0  0  0  0  0  0  0  0
   -2.7084   -0.9755    0.0000 C   0  0  0  0  0  0  0  0  0  0  0  0
   -3.5299   -0.8343    0.0000 N   0  0  0  0  0  0  0  0  0  0  0  0
  1  2  1  0  0  0  0
  2  3  2  0  0  0  0
  2  4  1  0  0  0  0
  3  5  1  0  0  0  0
  3  6  1  0  0  0  0
  4  7  1  0  0  0  0
  4  8  2  0  0  0  0
  6  9  2  0  0  0  0
  7 10  2  0  0  0  0
  7 11  1  0  0  0  0
 10 12  1  0  0  0  0
 11 13  2  0  0  0  0
 11 14  1  0  0  0  0
 12 15  2  0  0  0  0
 15 16  1  0  0  0  0
  8  9  1  0  0  0  0
 13 15  1  0  0  0  0
M  END

>  <name>
Lamotrigine

>  <ROTATABLE_BONDCOUNT>
1

>  <HBDScore>
0.5

>  <dipole>
6.51

>  <logD>
1.91

>  <MPOScore>
5.476333333333334

>  <logDScore>
1.0

>  <MW>
256.09

>  <charge_dist(7.4)>
0.03

>  <CNS>
TRUE

>  <ArRings>
2

>  <HBD>
2

>  <BALABAN_INDEX>
1.76

>  <bpKa>
5.87

>  <TPSAScore>
0.9763333333333335

>  <MWScore>
1.0

>  <bpKaScore>
1.0

>  <logPScore>
1.0

>  <MPO_area>
82.74

>  <TPSA>
90.71

>  <logP>
1.93

$$$$

  Mrv1722703221715202D          

 19 21  0  0  0  0            999 V2000
    0.0000    0.0000    0.0000 O   0  0  0  0  0  0  0  0  0  0  0  0
   -0.3585    0.7560    0.0000 C   0  0  0  0  0  0  0  0  0  0  0  0
   -1.1928    0.8342    0.0000 N   0  0  0  0  0  0  0  0  0  0  0  0
    0.1108    1.4469    0.0000 C   0  0  1  0  0  0  0  0  0  0  0  0
   -1.5512    1.5903    0.0000 C   0  0  0  0  0  0  0  0  0  0  0  0
    0.9320    1.3817    0.0000 N   0  0  0  0  0  0  0  0  0  0  0  0
   -0.2477    2.2030    0.0000 C   0  0  0  0  0  0  0  0  0  0  0  0
   -2.3854    1.6685    0.0000 O   0  0  0  0  0  0  0  0  0  0  0  0
   -1.0819    2.2812    0.0000 C   0  0  0  0  0  0  0  0  0  0  0  0
    1.3557    0.6778    0.0000 C   0  0  0  0  0  0  0  0  0  0  0  0
    1.4665    2.0139    0.0000 C   0  0  0  0  0  0  0  0  0  0  0  0
    1.0233   -0.0782    0.0000 O   0  0  0  0  0  0  0  0  0  0  0  0
    2.1573    0.8734    0.0000 C   0  0  0  0  0  0  0  0  0  0  0  0
    2.2225    1.6946    0.0000 C   0  0  0  0  0  0  0  0  0  0  0  0
    2.8352    0.4041    0.0000 C   0  0  0  0  0  0  0  0  0  0  0  0
    2.9655    2.0531    0.0000 C   0  0  0  0  0  0  0  0  0  0  0  0
    3.5782    0.7626    0.0000 C   0  0  0  0  0  0  0  0  0  0  0  0
    3.0307    2.8873    0.0000 N   0  0  0  0  0  0  0  0  0  0  0  0
    3.6433    1.5838    0.0000 C   0  0  0  0  0  0  0  0  0  0  0  0
  1  2  2  0  0  0  0
  2  3  1  0  0  0  0
  2  4  1  0  0  0  0
  3  5  1  0  0  0  0
  4  6  1  6  0  0  0
  4  7  1  0  0  0  0
  5  8  2  0  0  0  0
  5  9  1  0  0  0  0
  6 10  1  0  0  0  0
  6 11  1  0  0  0  0
 10 12  2  0  0  0  0
 10 13  1  0  0  0  0
 11 14  1  0  0  0  0
 13 15  2  0  0  0  0
 14 16  2  0  0  0  0
 15 17  1  0  0  0  0
 16 18  1  0  0  0  0
 16 19  1  0  0  0  0
  7  9  1  0  0  0  0
 13 14  1  0  0  0  0
 17 19  2  0  0  0  0
M  END

>  <name>
Lenalidomide

>  <ROTATABLE_BONDCOUNT>
1

>  <HBDScore>
0.5

>  <dipole>
8.70

>  <logD>
-0.71

>  <MPOScore>
5.416666666666667

>  <logDScore>
1.0

>  <MW>
259.265

>  <charge_dist(7.4)>
-0.00

>  <CNS>
TRUE

>  <ArRings>
1

>  <HBD>
2

>  <BALABAN_INDEX>
1.63

>  <bpKa>
2.31

>  <TPSAScore>
0.9166666666666666

>  <MWScore>
1.0

>  <bpKaScore>
1.0

>  <logPScore>
1.0

>  <MPO_area>
81.25

>  <TPSA>
92.50

>  <logP>
-0.71

$$$$

  Mrv1722703221715202D          

 22 24  0  0  0  0            999 V2000
    0.0000    0.0000    0.0000 N   0  0  0  0  0  0  0  0  0  0  0  0
    0.7114    0.4177    0.0000 C   0  0  0  0  0  0  0  0  0  0  0  0
    1.4229    0.8354    0.0000 C   0  0  0  0  0  0  0  0  0  0  0  0
    1.4164    1.6709    0.0000 C   0  0  0  0  0  0  0  0  0  0  0  0
    2.1343    0.4308    0.0000 C   0  0  0  0  0  0  0  0  0  0  0  0
    2.1278    2.0886    0.0000 C   0  0  0  0  0  0  0  0  0  0  0  0
    2.8457    0.8485    0.0000 C   0  0  0  0  0  0  0  0  0  0  0  0
    2.8392    1.6840    0.0000 C   0  0  0  0  0  0  0  0  0  0  0  0
    3.5506    2.1017    0.0000 C   0  0  0  0  0  0  0  0  0  0  0  0
    3.5441    2.9371    0.0000 N   0  0  0  0  0  0  0  0  0  0  0  0
    4.2621    1.6970    0.0000 C   0  0  0  0  0  0  0  0  0  0  0  0
    2.8653    3.4331    0.0000 N   0  0  0  0  0  0  0  0  0  0  0  0
    4.2098    3.4331    0.0000 C   0  0  0  0  0  0  0  0  0  0  0  0
    4.2555    0.8746    0.0000 C   0  0  0  0  0  0  0  0  0  0  0  0
    4.9735    2.1147    0.0000 C   0  0  0  0  0  0  0  0  0  0  0  0
    3.1133    4.2294    0.0000 C   0  0  0  0  0  0  0  0  0  0  0  0
    3.9488    4.2294    0.0000 N   0  0  0  0  0  0  0  0  0  0  0  0
    4.9670    0.4700    0.0000 C   0  0  0  0  0  0  0  0  0  0  0  0
    5.6849    1.7101    0.0000 C   0  0  0  0  0  0  0  0  0  0  0  0
    5.6784    0.8877    0.0000 C   0  0  0  0  0  0  0  0  0  0  0  0
    6.3898    0.4830    0.0000 C   0  0  0  0  0  0  0  0  0  0  0  0
    7.1012    0.0783    0.0000 N   0  0  0  0  0  0  0  0  0  0  0  0
  1  2  3  0  0  0  0
  2  3  1  0  0  0  0
  3  4  2  0  0  0  0
  3  5  1  0  0  0  0
  4  6  1  0  0  0  0
  5  7  2  0  0  0  0
  6  8  2  0  0  0  0
  8  9  1  0  0  0  0
  9 10  1  0  0  0  0
  9 11  1  0  0  0  0
 10 12  1  0  0  0  0
 10 13  1  0  0  0  0
 11 14  2  0  0  0  0
 11 15  1  0  0  0  0
 12 16  2  0  0  0  0
 13 17  2  0  0  0  0
 14 18  1  0  0  0  0
 15 19  2  0  0  0  0
 18 20  2  0  0  0  0
 20 21  1  0  0  0  0
 21 22  3  0  0  0  0
  7  8  1  0  0  0  0
 16 17  1  0  0  0  0
 19 20  1  0  0  0  0
M  END

>  <name>
Letrozole

>  <ROTATABLE_BONDCOUNT>
3

>  <HBDScore>
1.0

>  <dipole>
4.57

>  <logD>
2.94

>  <MPOScore>
5.53

>  <logDScore>
0.53

>  <MW>
285.310

>  <charge_dist(7.4)>
0.00

>  <CNS>
TRUE

>  <ArRings>
3

>  <HBD>
0

>  <BALABAN_INDEX>
1.63

>  <bpKa>
1.89

>  <TPSAScore>
1.0

>  <MWScore>
1.0

>  <bpKaScore>
1.0

>  <logPScore>
1.0

>  <MPO_area>
84.33

>  <TPSA>
78.29

>  <logP>
2.94

$$$$

  Mrv1722703221715202D          

 14 16  0  0  0  0            999 V2000
    0.0000    0.0000    0.0000 S   0  0  0  0  0  0  0  0  0  0  0  0
    0.7827    0.2609    0.0000 C   0  0  0  0  0  0  0  0  0  0  0  0
   -0.4957    0.6783    0.0000 C   0  0  0  0  0  0  0  0  0  0  0  0
    1.5653    0.0131    0.0000 N   0  0  0  0  0  0  0  0  0  0  0  0
    0.7761    1.0957    0.0000 N   0  0  0  0  0  0  0  0  0  0  0  0
   -0.0131    1.3566    0.0000 C   0  0  0  0  0  0  0  0  0  0  0  0
    2.0479    0.6914    0.0000 C   0  0  1  0  0  0  0  0  0  0  0  0
    1.5588    1.3566    0.0000 C   0  0  0  0  0  0  0  0  0  0  0  0
    2.8697    0.6979    0.0000 C   0  0  0  0  0  0  0  0  0  0  0  0
    3.2741   -0.0131    0.0000 C   0  0  0  0  0  0  0  0  0  0  0  0
    3.2741    1.4218    0.0000 C   0  0  0  0  0  0  0  0  0  0  0  0
    4.0959   -0.0065    0.0000 C   0  0  0  0  0  0  0  0  0  0  0  0
    4.0959    1.4283    0.0000 C   0  0  0  0  0  0  0  0  0  0  0  0
    4.5002    0.7174    0.0000 C   0  0  0  0  0  0  0  0  0  0  0  0
  1  2  1  0  0  0  0
  1  3  1  0  0  0  0
  2  4  2  0  0  0  0
  2  5  1  0  0  0  0
  3  6  1  0  0  0  0
  4  7  1  0  0  0  0
  5  8  1  0  0  0  0
  7  9  1  1  0  0  0
  9 10  2  0  0  0  0
  9 11  1  0  0  0  0
 10 12  1  0  0  0  0
 11 13  2  0  0  0  0
 12 14  2  0  0  0  0
  5  6  1  0  0  0  0
  7  8  1  0  0  0  0
 13 14  1  0  0  0  0
M  END

>  <name>
Levamisole

>  <ROTATABLE_BONDCOUNT>
1

>  <HBDScore>
1.0

>  <dipole>
4.80

>  <logD>
2.22

>  <MPOScore>
4.89

>  <logDScore>
0.8899999999999999

>  <MW>
204.29

>  <charge_dist(7.4)>
0.27

>  <CNS>
TRUE

>  <ArRings>
1

>  <HBD>
0

>  <BALABAN_INDEX>
1.59

>  <bpKa>
6.98

>  <TPSAScore>
0.0

>  <MWScore>
1.0

>  <bpKaScore>
1.0

>  <logPScore>
1.0

>  <MPO_area>
64.83

>  <TPSA>
15.60

>  <logP>
2.36

$$$$

  Mrv1722703221715202D          

 12 12  0  0  0  0            999 V2000
    0.0000    0.0000    0.0000 O   0  0  0  0  0  0  0  0  0  0  0  0
   -0.2398    0.7970    0.0000 C   0  0  0  0  0  0  0  0  0  0  0  0
    0.2592    1.4580    0.0000 N   0  0  0  0  0  0  0  0  0  0  0  0
   -1.0238    1.0821    0.0000 C   0  0  0  0  0  0  0  0  0  0  0  0
    1.0756    1.4386    0.0000 C   0  0  2  0  0  0  0  0  0  0  0  0
   -0.2138    2.1449    0.0000 C   0  0  0  0  0  0  0  0  0  0  0  0
   -1.0044    1.9116    0.0000 C   0  0  0  0  0  0  0  0  0  0  0  0
    1.4580    0.7193    0.0000 C   0  0  0  0  0  0  0  0  0  0  0  0
    1.5034    2.1449    0.0000 C   0  0  0  0  0  0  0  0  0  0  0  0
    1.0173    0.0259    0.0000 O   0  0  0  0  0  0  0  0  0  0  0  0
    2.2744    0.6998    0.0000 N   0  0  0  0  0  0  0  0  0  0  0  0
    2.3198    2.1254    0.0000 C   0  0  0  0  0  0  0  0  0  0  0  0
  1  2  2  0  0  0  0
  2  3  1  0  0  0  0
  2  4  1  0  0  0  0
  5  3  1  1  0  0  0
  3  6  1  0  0  0  0
  4  7  1  0  0  0  0
  5  8  1  0  0  0  0
  5  9  1  0  0  0  0
  8 10  2  0  0  0  0
  8 11  1  0  0  0  0
  9 12  1  0  0  0  0
  6  7  1  0  0  0  0
M  END

>  <name>
Levetiracetam

>  <ROTATABLE_BONDCOUNT>
3

>  <HBDScore>
0.8333333333333334

>  <dipole>
8.07

>  <logD>
-0.59

>  <MPOScore>
5.833333333333333

>  <logDScore>
1.0

>  <MW>
170.212

>  <charge_dist(7.4)>
-0.00

>  <CNS>
TRUE

>  <ArRings>
0

>  <HBD>
1

>  <BALABAN_INDEX>
2.52

>  <bpKa>
-1.56

>  <TPSAScore>
1.0

>  <MWScore>
1.0

>  <bpKaScore>
1.0

>  <logPScore>
1.0

>  <MPO_area>
94.44

>  <TPSA>
63.40

>  <logP>
-0.59

$$$$

  Mrv1722703221715202D          

 14 14  0  0  0  0            999 V2000
    0.0000    0.0000    0.0000 O   0  0  0  0  0  0  0  0  0  0  0  0
    0.2906    0.7815    0.0000 C   0  0  0  0  0  0  0  0  0  0  0  0
   -0.2390    1.4338    0.0000 O   0  0  0  0  0  0  0  0  0  0  0  0
    1.1044    0.9171    0.0000 C   0  0  1  0  0  0  0  0  0  0  0  0
    1.3950    1.6986    0.0000 N   0  0  0  0  0  0  0  0  0  0  0  0
    1.6211    0.2777    0.0000 C   0  0  0  0  0  0  0  0  0  0  0  0
    2.4348    0.4134    0.0000 C   0  0  0  0  0  0  0  0  0  0  0  0
    2.7255    1.1948    0.0000 C   0  0  0  0  0  0  0  0  0  0  0  0
    2.9515   -0.2260    0.0000 C   0  0  0  0  0  0  0  0  0  0  0  0
    3.5392    1.3304    0.0000 C   0  0  0  0  0  0  0  0  0  0  0  0
    3.7653   -0.0904    0.0000 C   0  0  0  0  0  0  0  0  0  0  0  0
    3.8299    2.1119    0.0000 O   0  0  0  0  0  0  0  0  0  0  0  0
    4.0559    0.6910    0.0000 C   0  0  0  0  0  0  0  0  0  0  0  0
    4.8697    0.8267    0.0000 O   0  0  0  0  0  0  0  0  0  0  0  0
  1  2  2  0  0  0  0
  2  3  1  0  0  0  0
  2  4  1  0  0  0  0
  4  5  1  1  0  0  0
  4  6  1  0  0  0  0
  6  7  1  0  0  0  0
  7  8  2  0  0  0  0
  7  9  1  0  0  0  0
  8 10  1  0  0  0  0
  9 11  2  0  0  0  0
 10 12  1  0  0  0  0
 10 13  2  0  0  0  0
 13 14  1  0  0  0  0
 11 13  1  0  0  0  0
M  END

>  <name>
Levodopa

>  <ROTATABLE_BONDCOUNT>
3

>  <HBDScore>
0.0

>  <dipole>
4.02

>  <logD>
-1.80

>  <MPOScore>
4.010666666666666

>  <logDScore>
1.0

>  <MW>
197.190

>  <charge_dist(7.4)>
-0.03

>  <CNS>
TRUE

>  <ArRings>
1

>  <HBD>
4

>  <BALABAN_INDEX>
2.33

>  <bpKa>
9.06

>  <TPSAScore>
0.5406666666666666

>  <MWScore>
1.0

>  <bpKaScore>
0.46999999999999975

>  <logPScore>
1.0

>  <MPO_area>
46.58

>  <TPSA>
103.78

>  <logP>
-1.79

$$$$

  Mrv1722703221715202D          

 23 25  0  0  0  0            999 V2000
    0.0000    0.0000    0.0000 S   0  0  0  0  0  0  0  0  0  0  0  0
   -0.5763    0.5951    0.0000 C   0  0  0  0  0  0  0  0  0  0  0  0
    0.7893    0.2067    0.0000 C   0  0  0  0  0  0  0  0  0  0  0  0
   -0.3570    1.3906    0.0000 C   0  0  0  0  0  0  0  0  0  0  0  0
   -1.3781    0.4009    0.0000 C   0  0  0  0  0  0  0  0  0  0  0  0
    1.0085    1.0023    0.0000 C   0  0  0  0  0  0  0  0  0  0  0  0
    1.3530   -0.3759    0.0000 C   0  0  0  0  0  0  0  0  0  0  0  0
    0.4322    1.5973    0.0000 N   0  0  0  0  0  0  0  0  0  0  0  0
   -0.9333    1.9857    0.0000 C   0  0  0  0  0  0  0  0  0  0  0  0
   -1.9544    0.9960    0.0000 C   0  0  0  0  0  0  0  0  0  0  0  0
    1.7978    1.2089    0.0000 C   0  0  0  0  0  0  0  0  0  0  0  0
    2.1423   -0.1691    0.0000 C   0  0  0  0  0  0  0  0  0  0  0  0
    0.6515    2.3929    0.0000 C   0  0  0  0  0  0  0  0  0  0  0  0
   -1.7351    1.7915    0.0000 C   0  0  0  0  0  0  0  0  0  0  0  0
    2.3615    0.6264    0.0000 C   0  0  0  0  0  0  0  0  0  0  0  0
    1.4407    2.5995    0.0000 C   0  0  2  0  0  0  0  0  0  0  0  0
   -2.3114    2.3866    0.0000 O   0  0  0  0  0  0  0  0  0  0  0  0
    2.0045    2.0170    0.0000 C   0  0  0  0  0  0  0  0  0  0  0  0
    1.6600    3.3951    0.0000 C   0  0  0  0  0  0  0  0  0  0  0  0
   -2.0922    3.1821    0.0000 C   0  0  0  0  0  0  0  0  0  0  0  0
    2.7937    2.2237    0.0000 N   0  0  0  0  0  0  0  0  0  0  0  0
    3.3575    1.6411    0.0000 C   0  0  0  0  0  0  0  0  0  0  0  0
    3.0130    3.0193    0.0000 C   0  0  0  0  0  0  0  0  0  0  0  0
  1  2  1  0  0  0  0
  1  3  1  0  0  0  0
  2  4  2  0  0  0  0
  2  5  1  0  0  0  0
  3  6  2  0  0  0  0
  3  7  1  0  0  0  0
  4  8  1  0  0  0  0
  4  9  1  0  0  0  0
  5 10  2  0  0  0  0
  6 11  1  0  0  0  0
  7 12  2  0  0  0  0
  8 13  1  0  0  0  0
  9 14  2  0  0  0  0
 11 15  2  0  0  0  0
 13 16  1  0  0  0  0
 14 17  1  0  0  0  0
 16 18  1  0  0  0  0
 16 19  1  1  0  0  0
 17 20  1  0  0  0  0
 18 21  1  0  0  0  0
 21 22  1  0  0  0  0
 21 23  1  0  0  0  0
  6  8  1  0  0  0  0
 10 14  1  0  0  0  0
 12 15  1  0  0  0  0
M  END

>  <name>
Levomepromazine

>  <ROTATABLE_BONDCOUNT>
5

>  <HBDScore>
1.0

>  <dipole>
5.52

>  <logD>
2.24

>  <MPOScore>
3.545

>  <logDScore>
0.8799999999999999

>  <MW>
328.47

>  <charge_dist(7.4)>
0.99

>  <CNS>
TRUE

>  <ArRings>
2

>  <HBD>
0

>  <BALABAN_INDEX>
1.67

>  <bpKa>
9.42

>  <TPSAScore>
0.0

>  <MWScore>
1.0

>  <bpKaScore>
0.29000000000000004

>  <logPScore>
0.375

>  <MPO_area>
38.65

>  <TPSA>
15.71

>  <logP>
4.25

$$$$

  Mrv1722703221715202D          

 26 27  0  0  0  0            999 V2000
    0.0000    0.0000    0.0000 O   0  0  0  0  0  0  0  0  0  0  0  0
    0.1031   -0.8120    0.0000 C   0  0  0  0  0  0  0  0  0  0  0  0
   -0.5607   -1.3083    0.0000 O   0  0  0  0  0  0  0  0  0  0  0  0
    0.8571   -1.1214    0.0000 C   0  0  0  0  0  0  0  0  0  0  0  0
   -1.3276   -0.9860    0.0000 C   0  0  2  0  0  0  0  0  0  0  0  0
   -1.9915   -1.4823    0.0000 C   0  0  0  0  0  0  0  0  0  0  0  0
   -1.4436   -0.1611    0.0000 C   0  0  0  0  0  0  0  0  0  0  0  0
   -1.4952   -2.1332    0.0000 C   0  0  0  0  0  0  0  0  0  0  0  0
   -2.6553   -1.9786    0.0000 C   0  0  0  0  0  0  0  0  0  0  0  0
   -2.5006   -0.8185    0.0000 C   0  0  0  0  0  0  0  0  0  0  0  0
   -0.7927    0.3480    0.0000 C   0  0  0  0  0  0  0  0  0  0  0  0
   -1.8174   -2.8873    0.0000 C   0  0  0  0  0  0  0  0  0  0  0  0
   -0.6831   -2.0172    0.0000 C   0  0  0  0  0  0  0  0  0  0  0  0
   -2.5521   -2.7906    0.0000 C   0  0  0  0  0  0  0  0  0  0  0  0
   -3.4222   -1.6563    0.0000 C   0  0  0  0  0  0  0  0  0  0  0  0
   -3.3255   -0.9216    0.0000 C   0  0  1  0  0  0  0  0  0  0  0  0
   -1.3212   -3.5382    0.0000 C   0  0  0  0  0  0  0  0  0  0  0  0
   -0.1869   -2.6682    0.0000 C   0  0  0  0  0  0  0  0  0  0  0  0
   -3.2159   -3.2868    0.0000 C   0  0  0  0  0  0  0  0  0  0  0  0
   -4.0860   -2.1526    0.0000 C   0  0  0  0  0  0  0  0  0  0  0  0
   -3.8346   -0.2578    0.0000 N   0  0  0  0  0  0  0  0  0  0  0  0
   -3.8217   -1.5790    0.0000 C   0  0  0  0  0  0  0  0  0  0  0  0
   -0.5091   -3.4222    0.0000 C   0  0  0  0  0  0  0  0  0  0  0  0
   -3.9829   -2.9646    0.0000 C   0  0  0  0  0  0  0  0  0  0  0  0
   -4.6596   -0.3609    0.0000 C   0  0  0  0  0  0  0  0  0  0  0  0
   -3.5253    0.5091    0.0000 C   0  0  0  0  0  0  0  0  0  0  0  0
  1  2  2  0  0  0  0
  2  3  1  0  0  0  0
  2  4  1  0  0  0  0
  5  3  1  6  0  0  0
  5  6  1  0  0  0  0
  5  7  1  0  0  0  0
  6  8  1  0  0  0  0
  6  9  1  0  0  0  0
  6 10  1  0  0  0  0
  7 11  1  0  0  0  0
  8 12  2  0  0  0  0
  8 13  1  0  0  0  0
  9 14  2  0  0  0  0
  9 15  1  0  0  0  0
 10 16  1  0  0  0  0
 12 17  1  0  0  0  0
 13 18  2  0  0  0  0
 14 19  1  0  0  0  0
 15 20  2  0  0  0  0
 16 21  1  6  0  0  0
 16 22  1  0  0  0  0
 17 23  2  0  0  0  0
 19 24  2  0  0  0  0
 21 25  1  0  0  0  0
 21 26  1  0  0  0  0
 18 23  1  0  0  0  0
 20 24  1  0  0  0  0
M  END

>  <name>
Levomethadyl

>  <ROTATABLE_BONDCOUNT>
9

>  <HBDScore>
1.0

>  <dipole>
3.68

>  <logD>
2.45

>  <MPOScore>
3.3770000000000002

>  <logDScore>
0.7749999999999999

>  <MW>
353.506

>  <charge_dist(7.4)>
1.00

>  <CNS>
TRUE

>  <ArRings>
2

>  <HBD>
0

>  <BALABAN_INDEX>
2.43

>  <bpKa>
9.87

>  <TPSAScore>
0.477

>  <MWScore>
1.0

>  <bpKaScore>
0.06500000000000039

>  <logPScore>
0.06000000000000005

>  <MPO_area>
37.33

>  <TPSA>
29.54

>  <logP>
4.88

$$$$

  Mrv1722703221715202D          

 18 19  0  0  0  0            999 V2000
    0.0000    0.0000    0.0000 O   0  0  0  0  0  0  0  0  0  0  0  0
   -0.2860    0.7801    0.0000 C   0  0  0  0  0  0  0  0  0  0  0  0
   -1.1052    0.9296    0.0000 N   0  0  0  0  0  0  0  0  0  0  0  0
    0.2405    1.4173    0.0000 C   0  0  1  0  0  0  0  0  0  0  0  0
   -1.6448    0.3055    0.0000 C   0  0  0  0  0  0  0  0  0  0  0  0
   -1.3912    1.7098    0.0000 C   0  0  0  0  0  0  0  0  0  0  0  0
    0.9491    1.0076    0.0000 C   0  0  0  0  0  0  0  0  0  0  0  0
    0.5201    2.1974    0.0000 C   0  0  2  0  0  0  0  0  0  0  0  0
   -0.2990    2.0543    0.0000 C   0  0  0  0  0  0  0  0  0  0  0  0
   -2.4639    0.4551    0.0000 C   0  0  0  0  0  0  0  0  0  0  0  0
   -2.2104    1.8593    0.0000 C   0  0  0  0  0  0  0  0  0  0  0  0
    0.9426    0.1885    0.0000 C   0  0  0  0  0  0  0  0  0  0  0  0
    1.6578    1.4238    0.0000 C   0  0  0  0  0  0  0  0  0  0  0  0
    1.1442    2.7369    0.0000 C   0  0  0  0  0  0  0  0  0  0  0  0
    1.6513   -0.2210    0.0000 C   0  0  0  0  0  0  0  0  0  0  0  0
    2.3664    1.0141    0.0000 C   0  0  0  0  0  0  0  0  0  0  0  0
    0.9946    3.5560    0.0000 N   0  0  0  0  0  0  0  0  0  0  0  0
    2.3599    0.1950    0.0000 C   0  0  0  0  0  0  0  0  0  0  0  0
  1  2  2  0  0  0  0
  2  3  1  0  0  0  0
  4  2  1  6  0  0  0
  3  5  1  0  0  0  0
  3  6  1  0  0  0  0
  4  7  1  0  0  0  0
  4  8  1  0  0  0  0
  4  9  1  0  0  0  0
  5 10  1  0  0  0  0
  6 11  1  0  0  0  0
  7 12  2  0  0  0  0
  7 13  1  0  0  0  0
  8 14  1  6  0  0  0
 12 15  1  0  0  0  0
 13 16  2  0  0  0  0
 14 17  1  0  0  0  0
 15 18  2  0  0  0  0
  8  9  1  0  0  0  0
 16 18  1  0  0  0  0
M  END

>  <name>
Levomilnacipran

>  <ROTATABLE_BONDCOUNT>
5

>  <HBDScore>
0.8333333333333334

>  <dipole>
5.05

>  <logD>
-0.91

>  <MPOScore>
4.918333333333333

>  <logDScore>
1.0

>  <MW>
246.354

>  <charge_dist(7.4)>
1.00

>  <CNS>
TRUE

>  <ArRings>
1

>  <HBD>
1

>  <BALABAN_INDEX>
2.00

>  <bpKa>
9.83

>  <TPSAScore>
1.0

>  <MWScore>
1.0

>  <bpKaScore>
0.08499999999999996

>  <logPScore>
1.0

>  <MPO_area>
66.49

>  <TPSA>
46.33

>  <logP>
1.42

$$$$

  Mrv1722703221715202D          

 25 26  0  0  0  0            999 V2000
    0.0000    0.0000    0.0000 O   0  0  0  0  0  0  0  0  0  0  0  0
    0.5945   -0.2876    0.0000 C   0  0  0  0  0  0  0  0  0  0  0  0
    0.7478   -1.0930    0.0000 O   0  0  0  0  0  0  0  0  0  0  0  0
    1.2080    0.2621    0.0000 C   0  0  0  0  0  0  0  0  0  0  0  0
    0.1214   -1.6299    0.0000 C   0  0  0  0  0  0  0  0  0  0  0  0
    1.0418    1.0802    0.0000 C   0  0  0  0  0  0  0  0  0  0  0  0
   -0.5050   -2.1668    0.0000 C   0  0  0  0  0  0  0  0  0  0  0  0
   -0.4283   -1.0035    0.0000 C   0  0  0  0  0  0  0  0  0  0  0  0
    0.6583   -2.2435    0.0000 C   0  0  0  0  0  0  0  0  0  0  0  0
   -1.2976   -1.8920    0.0000 C   0  0  0  0  0  0  0  0  0  0  0  0
   -0.3516   -2.9722    0.0000 C   0  0  0  0  0  0  0  0  0  0  0  0
   -1.2464   -1.1569    0.0000 C   0  0  0  0  0  0  0  0  0  0  0  0
   -0.3004   -0.3388    0.0000 C   0  0  0  0  0  0  0  0  0  0  0  0
    1.4637   -2.0773    0.0000 C   0  0  0  0  0  0  0  0  0  0  0  0
   -1.9239   -2.4289    0.0000 C   0  0  0  0  0  0  0  0  0  0  0  0
   -0.9780   -3.5091    0.0000 C   0  0  0  0  0  0  0  0  0  0  0  0
   -1.7961   -0.5305    0.0000 N   0  0  0  0  0  0  0  0  0  0  0  0
    2.0006   -2.6910    0.0000 C   0  0  0  0  0  0  0  0  0  0  0  0
    1.7258   -1.2847    0.0000 C   0  0  0  0  0  0  0  0  0  0  0  0
   -1.7705   -3.2343    0.0000 C   0  0  0  0  0  0  0  0  0  0  0  0
   -2.6142   -0.6839    0.0000 C   0  0  0  0  0  0  0  0  0  0  0  0
   -1.5340    0.2621    0.0000 C   0  0  0  0  0  0  0  0  0  0  0  0
    2.8060   -2.5248    0.0000 C   0  0  0  0  0  0  0  0  0  0  0  0
    2.5311   -1.1186    0.0000 C   0  0  0  0  0  0  0  0  0  0  0  0
    3.0681   -1.7322    0.0000 C   0  0  0  0  0  0  0  0  0  0  0  0
  1  2  2  0  0  0  0
  2  3  1  0  0  0  0
  2  4  1  0  0  0  0
  3  5  1  0  0  0  0
  4  6  1  0  0  0  0
  5  7  1  0  0  0  0
  5  8  1  0  0  0  0
  5  9  1  0  0  0  0
  7 10  2  0  0  0  0
  7 11  1  0  0  0  0
  8 12  1  0  0  0  0
  8 13  1  0  0  0  0
  9 14  1  0  0  0  0
 10 15  1  0  0  0  0
 11 16  2  0  0  0  0
 12 17  1  0  0  0  0
 14 18  2  0  0  0  0
 14 19  1  0  0  0  0
 15 20  2  0  0  0  0
 17 21  1  0  0  0  0
 17 22  1  0  0  0  0
 18 23  1  0  0  0  0
 19 24  2  0  0  0  0
 23 25  2  0  0  0  0
 16 20  1  0  0  0  0
 24 25  1  0  0  0  0
M  END

>  <name>
Levopropoxyphene

>  <ROTATABLE_BONDCOUNT>
9

>  <HBDScore>
1.0

>  <dipole>
4.21

>  <logD>
2.80

>  <MPOScore>
3.367

>  <logDScore>
0.6000000000000001

>  <MW>
339.479

>  <charge_dist(7.4)>
0.99

>  <CNS>
TRUE

>  <ArRings>
2

>  <HBD>
0

>  <BALABAN_INDEX>
2.09

>  <bpKa>
9.52

>  <TPSAScore>
0.477

>  <MWScore>
1.0

>  <bpKaScore>
0.2400000000000002

>  <logPScore>
0.04999999999999982

>  <MPO_area>
34.38

>  <TPSA>
29.54

>  <logP>
4.90

$$$$

  Mrv1722703221715202D          

 17 17  0  0  0  0            999 V2000
    0.0000    0.0000    0.0000 O   0  0  0  0  0  0  0  0  0  0  0  0
    0.0065   -0.8168    0.0000 C   0  0  0  0  0  0  0  0  0  0  0  0
    0.7196   -1.2122    0.0000 N   0  0  0  0  0  0  0  0  0  0  0  0
   -0.7066   -1.2317    0.0000 C   0  0  0  0  0  0  0  0  0  0  0  0
    1.4197   -0.7844    0.0000 C   0  0  0  0  0  0  0  0  0  0  0  0
   -1.4326   -0.8233    0.0000 N   0  0  0  0  0  0  0  0  0  0  0  0
    2.1328   -1.1798    0.0000 C   0  0  0  0  0  0  0  0  0  0  0  0
    1.4002    0.0454    0.0000 C   0  0  0  0  0  0  0  0  0  0  0  0
   -2.1457   -1.2382    0.0000 C   0  0  0  0  0  0  0  0  0  0  0  0
   -1.4521    0.0065    0.0000 C   0  0  0  0  0  0  0  0  0  0  0  0
    2.8329   -0.7520    0.0000 C   0  0  0  0  0  0  0  0  0  0  0  0
    2.1392   -1.9966    0.0000 C   0  0  0  0  0  0  0  0  0  0  0  0
    2.1003    0.4732    0.0000 C   0  0  0  0  0  0  0  0  0  0  0  0
    0.6742    0.4538    0.0000 C   0  0  0  0  0  0  0  0  0  0  0  0
   -2.8717   -0.8297    0.0000 C   0  0  0  0  0  0  0  0  0  0  0  0
   -2.1781    0.4149    0.0000 C   0  0  0  0  0  0  0  0  0  0  0  0
    2.8134    0.0778    0.0000 C   0  0  0  0  0  0  0  0  0  0  0  0
  1  2  2  0  0  0  0
  2  3  1  0  0  0  0
  2  4  1  0  0  0  0
  3  5  1  0  0  0  0
  4  6  1  0  0  0  0
  5  7  2  0  0  0  0
  5  8  1  0  0  0  0
  6  9  1  0  0  0  0
  6 10  1  0  0  0  0
  7 11  1  0  0  0  0
  7 12  1  0  0  0  0
  8 13  2  0  0  0  0
  8 14  1  0  0  0  0
  9 15  1  0  0  0  0
 10 16  1  0  0  0  0
 11 17  2  0  0  0  0
 13 17  1  0  0  0  0
M  END

>  <name>
Lidocaine

>  <ROTATABLE_BONDCOUNT>
5

>  <HBDScore>
0.8333333333333334

>  <dipole>
5.52

>  <logD>
2.33

>  <MPOScore>
5.285333333333333

>  <logDScore>
0.835

>  <MW>
234.343

>  <charge_dist(7.4)>
0.69

>  <CNS>
TRUE

>  <ArRings>
1

>  <HBD>
1

>  <BALABAN_INDEX>
2.26

>  <bpKa>
7.75

>  <TPSAScore>
0.6170000000000002

>  <MWScore>
1.0

>  <bpKaScore>
1.0

>  <logPScore>
1.0

>  <MPO_area>
77.7

>  <TPSA>
32.34

>  <logP>
2.84

$$$$

  Mrv1722703221715202D          

 16 17  0  0  0  0            999 V2000
    0.0000    0.0000    0.0000 Cl  0  0  0  0  0  0  0  0  0  0  0  0
    0.5647   -0.5907    0.0000 C   0  0  0  0  0  0  0  0  0  0  0  0
    0.3310   -1.3761    0.0000 C   0  0  0  0  0  0  0  0  0  0  0  0
    1.3632   -0.3830    0.0000 C   0  0  0  0  0  0  0  0  0  0  0  0
   -0.4803   -1.5709    0.0000 O   0  0  0  0  0  0  0  0  0  0  0  0
    0.8958   -1.9668    0.0000 C   0  0  0  0  0  0  0  0  0  0  0  0
    1.9279   -0.9737    0.0000 C   0  0  0  0  0  0  0  0  0  0  0  0
   -1.0581   -0.9672    0.0000 C   0  0  2  0  0  0  0  0  0  0  0  0
    0.6621   -2.7522    0.0000 Cl  0  0  0  0  0  0  0  0  0  0  0  0
    1.6942   -1.7591    0.0000 C   0  0  0  0  0  0  0  0  0  0  0  0
   -1.8694   -1.1619    0.0000 C   0  0  0  0  0  0  0  0  0  0  0  0
   -0.8373   -0.1688    0.0000 C   0  0  0  0  0  0  0  0  0  0  0  0
   -2.5055   -0.6231    0.0000 N   0  0  0  0  0  0  0  0  0  0  0  0
   -2.1875   -1.9214    0.0000 N   0  0  0  0  0  0  0  0  0  0  0  0
   -3.2131   -1.0516    0.0000 C   0  0  0  0  0  0  0  0  0  0  0  0
   -3.0184   -1.8565    0.0000 C   0  0  0  0  0  0  0  0  0  0  0  0
  1  2  1  0  0  0  0
  2  3  2  0  0  0  0
  2  4  1  0  0  0  0
  3  5  1  0  0  0  0
  3  6  1  0  0  0  0
  4  7  2  0  0  0  0
  8  5  1  6  0  0  0
  6  9  1  0  0  0  0
  6 10  2  0  0  0  0
  8 11  1  0  0  0  0
  8 12  1  0  0  0  0
 11 13  2  0  0  0  0
 11 14  1  0  0  0  0
 13 15  1  0  0  0  0
 14 16  1  0  0  0  0
  7 10  1  0  0  0  0
 15 16  1  0  0  0  0
M  END

>  <name>
Lofexidine

>  <ROTATABLE_BONDCOUNT>
3

>  <HBDScore>
0.8333333333333334

>  <dipole>
5.13

>  <logD>
0.90

>  <MPOScore>
4.879333333333333

>  <logDScore>
1.0

>  <MW>
259.13

>  <charge_dist(7.4)>
0.99

>  <CNS>
TRUE

>  <ArRings>
1

>  <HBD>
1

>  <BALABAN_INDEX>
1.64

>  <bpKa>
9.27

>  <TPSAScore>
0.6809999999999999

>  <MWScore>
1.0

>  <bpKaScore>
0.3650000000000002

>  <logPScore>
1.0

>  <MPO_area>
66.91

>  <TPSA>
33.62

>  <logP>
2.66

$$$$

  Mrv1722703221715202D          

 15 15  0  0  0  0            999 V2000
    0.0000    0.0000    0.0000 Cl  0  0  0  0  0  0  0  0  0  0  0  0
    0.5980   -0.5661    0.0000 C   0  0  0  0  0  0  0  0  0  0  0  0
    1.3868   -0.3244    0.0000 C   0  0  0  0  0  0  0  0  0  0  0  0
    1.9847   -0.8906    0.0000 N   0  0  0  0  0  0  0  0  0  0  0  0
    1.7875   -1.6921    0.0000 N   0  0  0  0  0  0  0  0  0  0  0  0
    2.7735   -0.6489    0.0000 C   0  0  0  0  0  0  0  0  0  0  0  0
    0.9860   -1.9211    0.0000 O   0  0  0  0  0  0  0  0  0  0  0  0
    2.9579    0.1654    0.0000 O   0  0  0  0  0  0  0  0  0  0  0  0
    3.3714   -1.2150    0.0000 N   0  0  0  0  0  0  0  0  0  0  0  0
    4.1602   -0.9733    0.0000 C   0  0  0  0  0  0  0  0  0  0  0  0
    4.3447   -0.1590    0.0000 C   0  0  0  0  0  0  0  0  0  0  0  0
    4.7582   -1.5394    0.0000 C   0  0  0  0  0  0  0  0  0  0  0  0
    5.1335    0.0827    0.0000 C   0  0  0  0  0  0  0  0  0  0  0  0
    5.5470   -1.2977    0.0000 C   0  0  0  0  0  0  0  0  0  0  0  0
    5.7315   -0.4834    0.0000 C   0  0  0  0  0  0  0  0  0  0  0  0
  1  2  1  0  0  0  0
  2  3  1  0  0  0  0
  3  4  1  0  0  0  0
  4  5  1  0  0  0  0
  4  6  1  0  0  0  0
  5  7  2  0  0  0  0
  6  8  2  0  0  0  0
  6  9  1  0  0  0  0
  9 10  1  0  0  0  0
 10 11  1  0  0  0  0
 10 12  1  0  0  0  0
 11 13  1  0  0  0  0
 12 14  1  0  0  0  0
 13 15  1  0  0  0  0
 14 15  1  0  0  0  0
M  END

>  <name>
Lomustine

>  <ROTATABLE_BONDCOUNT>
4

>  <HBDScore>
0.8333333333333334

>  <dipole>
7.05

>  <logD>
2.16

>  <MPOScore>
5.753333333333333

>  <logDScore>
0.9199999999999999

>  <MW>
233.70

>  <charge_dist(7.4)>
-0.00

>  <CNS>
TRUE

>  <ArRings>
0

>  <HBD>
1

>  <BALABAN_INDEX>
2.12

>  <bpKa>
-5.35

>  <TPSAScore>
1.0

>  <MWScore>
1.0

>  <bpKaScore>
1.0

>  <logPScore>
1.0

>  <MPO_area>
92.0

>  <TPSA>
61.77

>  <logP>
2.16

$$$$

  Mrv1722703221715202D          

 27 30  0  0  0  0            999 V2000
    0.0000    0.0000    0.0000 Cl  0  0  0  0  0  0  0  0  0  0  0  0
    0.4113   -0.7116    0.0000 C   0  0  0  0  0  0  0  0  0  0  0  0
   -0.0065   -1.4231    0.0000 C   0  0  0  0  0  0  0  0  0  0  0  0
    1.2339   -0.6985    0.0000 C   0  0  0  0  0  0  0  0  0  0  0  0
    0.4047   -2.1347    0.0000 C   0  0  0  0  0  0  0  0  0  0  0  0
    1.6451   -1.4101    0.0000 C   0  0  0  0  0  0  0  0  0  0  0  0
    1.2273   -2.1217    0.0000 C   0  0  0  0  0  0  0  0  0  0  0  0
   -0.1175   -2.7810    0.0000 C   0  0  0  0  0  0  0  0  0  0  0  0
    1.7430   -2.7614    0.0000 C   0  0  0  0  0  0  0  0  0  0  0  0
    0.0653   -3.5840    0.0000 C   0  0  0  0  0  0  0  0  0  0  0  0
    1.5537   -3.5644    0.0000 C   0  0  0  0  0  0  0  0  0  0  0  0
    2.5460   -2.5656    0.0000 C   0  0  0  0  0  0  0  0  0  0  0  0
    0.8095   -3.9300    0.0000 C   0  0  0  0  0  0  0  0  0  0  0  0
    2.2327   -4.0213    0.0000 N   0  0  0  0  0  0  0  0  0  0  0  0
    3.1074   -3.1661    0.0000 C   0  0  0  0  0  0  0  0  0  0  0  0
    2.7810   -1.7626    0.0000 C   0  0  0  0  0  0  0  0  0  0  0  0
    0.7442   -4.7525    0.0000 C   0  0  0  0  0  0  0  0  0  0  0  0
    2.1673   -4.8439    0.0000 C   0  0  0  0  0  0  0  0  0  0  0  0
    3.9104   -2.9703    0.0000 C   0  0  0  0  0  0  0  0  0  0  0  0
    3.5840   -1.5668    0.0000 C   0  0  0  0  0  0  0  0  0  0  0  0
    1.4231   -5.2095    0.0000 C   0  0  0  0  0  0  0  0  0  0  0  0
    4.1454   -2.1673    0.0000 N   0  0  0  0  0  0  0  0  0  0  0  0
    4.9484   -1.9715    0.0000 C   0  0  0  0  0  0  0  0  0  0  0  0
    5.1834   -1.1685    0.0000 O   0  0  0  0  0  0  0  0  0  0  0  0
    5.5098   -2.5721    0.0000 O   0  0  0  0  0  0  0  0  0  0  0  0
    6.3128   -2.3763    0.0000 C   0  0  0  0  0  0  0  0  0  0  0  0
    6.8742   -2.9769    0.0000 C   0  0  0  0  0  0  0  0  0  0  0  0
  1  2  1  0  0  0  0
  2  3  2  0  0  0  0
  2  4  1  0  0  0  0
  3  5  1  0  0  0  0
  4  6  2  0  0  0  0
  5  7  2  0  0  0  0
  5  8  1  0  0  0  0
  7  9  1  0  0  0  0
  8 10  1  0  0  0  0
  9 11  1  0  0  0  0
  9 12  2  0  0  0  0
 10 13  1  0  0  0  0
 11 14  2  0  0  0  0
 12 15  1  0  0  0  0
 12 16  1  0  0  0  0
 13 17  2  0  0  0  0
 14 18  1  0  0  0  0
 15 19  1  0  0  0  0
 16 20  1  0  0  0  0
 17 21  1  0  0  0  0
 19 22  1  0  0  0  0
 22 23  1  0  0  0  0
 23 24  2  0  0  0  0
 23 25  1  0  0  0  0
 25 26  1  0  0  0  0
 26 27  1  0  0  0  0
  6  7  1  0  0  0  0
 11 13  1  0  0  0  0
 18 21  2  0  0  0  0
 20 22  1  0  0  0  0
M  END

>  <name>
Loratadine

>  <ROTATABLE_BONDCOUNT>
2

>  <HBDScore>
1.0

>  <dipole>
6.71

>  <logD>
4.55

>  <MPOScore>
4.0615000000000006

>  <logDScore>
0.0

>  <MW>
382.89

>  <charge_dist(7.4)>
0.00

>  <CNS>
TRUE

>  <ArRings>
2

>  <HBD>
0

>  <BALABAN_INDEX>
1.49

>  <bpKa>
4.33

>  <TPSAScore>
1.0

>  <MWScore>
0.8365000000000001

>  <bpKaScore>
1.0

>  <logPScore>
0.2250000000000001

>  <MPO_area>
50.41

>  <TPSA>
42.43

>  <logP>
4.55

$$$$

  Mrv1722703221715202D          

 21 23  0  0  0  0            999 V2000
    0.0000    0.0000    0.0000 Cl  0  0  0  0  0  0  0  0  0  0  0  0
    0.1947   -0.7919    0.0000 C   0  0  0  0  0  0  0  0  0  0  0  0
   -0.4025   -1.3567    0.0000 C   0  0  0  0  0  0  0  0  0  0  0  0
    0.9802   -1.0126    0.0000 C   0  0  0  0  0  0  0  0  0  0  0  0
   -1.2009   -1.1230    0.0000 C   0  0  0  0  0  0  0  0  0  0  0  0
   -0.2077   -2.1486    0.0000 C   0  0  0  0  0  0  0  0  0  0  0  0
    1.1749   -1.8046    0.0000 C   0  0  0  0  0  0  0  0  0  0  0  0
   -1.7527   -1.7332    0.0000 N   0  0  0  0  0  0  0  0  0  0  0  0
   -1.3502   -0.3051    0.0000 C   0  0  0  0  0  0  0  0  0  0  0  0
    0.5777   -2.3693    0.0000 C   0  0  0  0  0  0  0  0  0  0  0  0
   -2.5835   -1.6813    0.0000 C   0  0  1  0  0  0  0  0  0  0  0  0
   -2.0772    0.0974    0.0000 C   0  0  0  0  0  0  0  0  0  0  0  0
   -0.6491    0.1298    0.0000 C   0  0  0  0  0  0  0  0  0  0  0  0
   -2.9860   -2.3953    0.0000 O   0  0  0  0  0  0  0  0  0  0  0  0
   -3.0704   -1.0061    0.0000 C   0  0  0  0  0  0  0  0  0  0  0  0
   -2.8432   -0.2142    0.0000 N   0  0  0  0  0  0  0  0  0  0  0  0
   -2.1032    0.9283    0.0000 C   0  0  0  0  0  0  0  0  0  0  0  0
   -0.6751    0.9607    0.0000 C   0  0  0  0  0  0  0  0  0  0  0  0
   -3.8883   -1.1425    0.0000 O   0  0  0  0  0  0  0  0  0  0  0  0
   -1.4021    1.3632    0.0000 C   0  0  0  0  0  0  0  0  0  0  0  0
    0.0260    1.3956    0.0000 Cl  0  0  0  0  0  0  0  0  0  0  0  0
  1  2  1  0  0  0  0
  2  3  2  0  0  0  0
  2  4  1  0  0  0  0
  3  5  1  0  0  0  0
  3  6  1  0  0  0  0
  4  7  2  0  0  0  0
  5  8  2  0  0  0  0
  5  9  1  0  0  0  0
  6 10  2  0  0  0  0
  8 11  1  0  0  0  0
  9 12  2  0  0  0  0
  9 13  1  0  0  0  0
 11 14  1  1  0  0  0
 11 15  1  0  0  0  0
 12 16  1  0  0  0  0
 12 17  1  0  0  0  0
 13 18  2  0  0  0  0
 15 19  2  0  0  0  0
 17 20  2  0  0  0  0
 18 21  1  0  0  0  0
  7 10  1  0  0  0  0
 15 16  1  0  0  0  0
 18 20  1  0  0  0  0
M  END

>  <name>
Lorazepam

>  <ROTATABLE_BONDCOUNT>
1

>  <HBDScore>
0.5

>  <dipole>
6.42

>  <logD>
3.53

>  <MPOScore>
4.470000000000001

>  <logDScore>
0.2350000000000001

>  <MW>
321.16

>  <charge_dist(7.4)>
-0.00

>  <CNS>
TRUE

>  <ArRings>
2

>  <HBD>
2

>  <BALABAN_INDEX>
1.59

>  <bpKa>
-2.24

>  <TPSAScore>
1.0

>  <MWScore>
1.0

>  <bpKaScore>
1.0

>  <logPScore>
0.7350000000000001

>  <MPO_area>
57.58

>  <TPSA>
61.69

>  <logP>
3.53

$$$$

  Mrv1722703221715202D          

 26 28  0  0  0  0            999 V2000
    0.0000    0.0000    0.0000 Cl  0  0  0  0  0  0  0  0  0  0  0  0
   -0.3797    0.7337    0.0000 C   0  0  0  0  0  0  0  0  0  0  0  0
   -1.2035    0.7788    0.0000 C   0  0  0  0  0  0  0  0  0  0  0  0
    0.0579    1.4288    0.0000 C   0  0  0  0  0  0  0  0  0  0  0  0
   -1.5832    1.5124    0.0000 C   0  0  0  0  0  0  0  0  0  0  0  0
   -0.3218    2.1625    0.0000 C   0  0  0  0  0  0  0  0  0  0  0  0
   -1.1456    2.2075    0.0000 C   0  0  0  0  0  0  0  0  0  0  0  0
   -1.5253    2.9412    0.0000 N   0  0  0  0  0  0  0  0  0  0  0  0
   -2.3491    2.9863    0.0000 C   0  0  0  0  0  0  0  0  0  0  0  0
   -1.0876    3.6363    0.0000 C   0  0  0  0  0  0  0  0  0  0  0  0
   -2.7996    2.3041    0.0000 O   0  0  0  0  0  0  0  0  0  0  0  0
   -2.7288    3.7200    0.0000 C   0  0  0  0  0  0  0  0  0  0  0  0
   -0.2768    3.6041    0.0000 C   0  0  0  0  0  0  0  0  0  0  0  0
   -1.4674    4.3700    0.0000 C   0  0  0  0  0  0  0  0  0  0  0  0
   -3.5526    3.7650    0.0000 C   0  0  0  0  0  0  0  0  0  0  0  0
    0.1609    4.2992    0.0000 C   0  0  0  0  0  0  0  0  0  0  0  0
   -1.0298    5.0651    0.0000 C   0  0  0  0  0  0  0  0  0  0  0  0
   -3.9324    4.4987    0.0000 C   0  0  0  0  0  0  0  0  0  0  0  0
   -4.0032    3.0828    0.0000 C   0  0  0  0  0  0  0  0  0  0  0  0
   -0.2188    5.0329    0.0000 N   0  0  0  0  0  0  0  0  0  0  0  0
   -4.7561    4.5437    0.0000 C   0  0  0  0  0  0  0  0  0  0  0  0
   -4.8269    3.1279    0.0000 C   0  0  0  0  0  0  0  0  0  0  0  0
    0.2188    5.7280    0.0000 C   0  0  0  0  0  0  0  0  0  0  0  0
   -5.2067    3.8615    0.0000 C   0  0  0  0  0  0  0  0  0  0  0  0
    1.0298    5.6958    0.0000 C   0  0  0  0  0  0  0  0  0  0  0  0
   -0.1609    6.4617    0.0000 C   0  0  0  0  0  0  0  0  0  0  0  0
  1  2  1  0  0  0  0
  2  3  2  0  0  0  0
  2  4  1  0  0  0  0
  3  5  1  0  0  0  0
  4  6  2  0  0  0  0
  5  7  2  0  0  0  0
  7  8  1  0  0  0  0
  8  9  1  0  0  0  0
  8 10  1  0  0  0  0
  9 11  2  0  0  0  0
  9 12  1  0  0  0  0
 10 13  1  0  0  0  0
 10 14  1  0  0  0  0
 12 15  1  0  0  0  0
 13 16  1  0  0  0  0
 14 17  1  0  0  0  0
 15 18  2  0  0  0  0
 15 19  1  0  0  0  0
 16 20  1  0  0  0  0
 18 21  1  0  0  0  0
 19 22  2  0  0  0  0
 20 23  1  0  0  0  0
 21 24  2  0  0  0  0
 23 25  1  0  0  0  0
 23 26  1  0  0  0  0
  6  7  1  0  0  0  0
 17 20  1  0  0  0  0
 22 24  1  0  0  0  0
M  END

>  <name>
Lorcainide

>  <ROTATABLE_BONDCOUNT>
5

>  <HBDScore>
1.0

>  <dipole>
2.28

>  <logD>
2.87

>  <MPOScore>
3.5945

>  <logDScore>
0.565

>  <MW>
370.92

>  <charge_dist(7.4)>
0.96

>  <CNS>
TRUE

>  <ArRings>
2

>  <HBD>
0

>  <BALABAN_INDEX>
1.63

>  <bpKa>
8.83

>  <TPSAScore>
0.17750000000000005

>  <MWScore>
0.9219999999999999

>  <bpKaScore>
0.585

>  <logPScore>
0.3450000000000002

>  <MPO_area>
37.09

>  <TPSA>
23.55

>  <logP>
4.31

$$$$

  Mrv1722703221715202D          

 13 14  0  0  0  0            999 V2000
    0.0000    0.0000    0.0000 Cl  0  0  0  0  0  0  0  0  0  0  0  0
   -0.7536   -0.3349    0.0000 C   0  0  0  0  0  0  0  0  0  0  0  0
   -1.4299    0.1482    0.0000 C   0  0  0  0  0  0  0  0  0  0  0  0
   -0.8374   -1.1465    0.0000 C   0  0  0  0  0  0  0  0  0  0  0  0
   -2.1835   -0.1868    0.0000 C   0  0  0  0  0  0  0  0  0  0  0  0
   -1.5909   -1.4815    0.0000 C   0  0  0  0  0  0  0  0  0  0  0  0
   -2.2673   -0.9984    0.0000 C   0  0  0  0  0  0  0  0  0  0  0  0
   -2.7826    0.3929    0.0000 C   0  0  2  0  0  0  0  0  0  0  0  0
   -2.9629   -1.4428    0.0000 C   0  0  0  0  0  0  0  0  0  0  0  0
   -3.6006    0.2963    0.0000 C   0  0  0  0  0  0  0  0  0  0  0  0
   -2.5313    1.1787    0.0000 C   0  0  0  0  0  0  0  0  0  0  0  0
   -3.7487   -1.1787    0.0000 C   0  0  0  0  0  0  0  0  0  0  0  0
   -4.0322   -0.3993    0.0000 N   0  0  0  0  0  0  0  0  0  0  0  0
  1  2  1  0  0  0  0
  2  3  2  0  0  0  0
  2  4  1  0  0  0  0
  3  5  1  0  0  0  0
  4  6  2  0  0  0  0
  5  7  2  0  0  0  0
  5  8  1  0  0  0  0
  7  9  1  0  0  0  0
  8 10  1  0  0  0  0
  8 11  1  6  0  0  0
  9 12  1  0  0  0  0
 10 13  1  0  0  0  0
  6  7  1  0  0  0  0
 12 13  1  0  0  0  0
M  END

>  <name>
Lorcaserin

>  <ROTATABLE_BONDCOUNT>
0

>  <HBDScore>
0.8333333333333334

>  <dipole>
1.82

>  <logD>
0.22

>  <MPOScore>
3.8333333333333335

>  <logDScore>
1.0

>  <MW>
195.69

>  <charge_dist(7.4)>
1.00

>  <CNS>
TRUE

>  <ArRings>
1

>  <HBD>
1

>  <BALABAN_INDEX>
1.74

>  <bpKa>
10.12

>  <TPSAScore>
0.0

>  <MWScore>
1.0

>  <bpKaScore>
0.0

>  <logPScore>
1.0

>  <MPO_area>
47.22

>  <TPSA>
12.03

>  <logP>
2.83

$$$$

  Mrv1722703221715202D          

 30 33  0  0  0  0            999 V2000
    0.0000    0.0000    0.0000 Cl  0  0  0  0  0  0  0  0  0  0  0  0
    0.8213    0.0196    0.0000 C   0  0  0  0  0  0  0  0  0  0  0  0
    1.2906    0.7039    0.0000 N   0  0  0  0  0  0  0  0  0  0  0  0
    1.3166   -0.6322    0.0000 C   0  0  0  0  0  0  0  0  0  0  0  0
    2.0792    0.4693    0.0000 C   0  0  0  0  0  0  0  0  0  0  0  0
    2.0922   -0.3520    0.0000 N   0  0  0  0  0  0  0  0  0  0  0  0
    1.0689   -1.4209    0.0000 C   0  0  0  0  0  0  0  0  0  0  0  0
    2.7310    0.9777    0.0000 C   0  0  0  0  0  0  0  0  0  0  0  0
    2.7636   -0.8213    0.0000 C   0  0  0  0  0  0  0  0  0  0  0  0
    0.2542   -1.6034    0.0000 O   0  0  0  0  0  0  0  0  0  0  0  0
    2.6202    1.8055    0.0000 C   0  0  0  0  0  0  0  0  0  0  0  0
    3.5066   -0.4628    0.0000 C   0  0  0  0  0  0  0  0  0  0  0  0
    3.2720    2.3139    0.0000 C   0  0  0  0  0  0  0  0  0  0  0  0
    4.1780   -0.9321    0.0000 C   0  0  0  0  0  0  0  0  0  0  0  0
    3.5719    0.3715    0.0000 C   0  0  0  0  0  0  0  0  0  0  0  0
    3.1612    3.1417    0.0000 C   0  0  0  0  0  0  0  0  0  0  0  0
    4.9210   -0.5736    0.0000 C   0  0  0  0  0  0  0  0  0  0  0  0
    4.3149    0.7300    0.0000 C   0  0  0  0  0  0  0  0  0  0  0  0
    4.9863    0.2607    0.0000 C   0  0  0  0  0  0  0  0  0  0  0  0
    5.7293    0.6192    0.0000 C   0  0  0  0  0  0  0  0  0  0  0  0
    6.4006    0.1499    0.0000 C   0  0  0  0  0  0  0  0  0  0  0  0
    5.7945    1.4535    0.0000 C   0  0  0  0  0  0  0  0  0  0  0  0
    6.3224   -0.6714    0.0000 C   0  0  0  0  0  0  0  0  0  0  0  0
    7.1437    0.5084    0.0000 C   0  0  0  0  0  0  0  0  0  0  0  0
    6.5375    1.8120    0.0000 C   0  0  0  0  0  0  0  0  0  0  0  0
    5.6054   -1.0950    0.0000 N   0  0  0  0  0  0  0  0  0  0  0  0
    6.9416   -1.2058    0.0000 N   0  0  0  0  0  0  0  0  0  0  0  0
    7.2088    1.3427    0.0000 C   0  0  0  0  0  0  0  0  0  0  0  0
    5.7880   -1.8967    0.0000 N   0  0  0  0  0  0  0  0  0  0  0  0
    6.6157   -1.9619    0.0000 N   0  0  0  0  0  2  0  0  0  0  0  0
  1  2  1  0  0  0  0
  2  3  1  0  0  0  0
  2  4  2  0  0  0  0
  3  5  2  0  0  0  0
  4  6  1  0  0  0  0
  4  7  1  0  0  0  0
  5  8  1  0  0  0  0
  6  9  1  0  0  0  0
  7 10  1  0  0  0  0
  8 11  1  0  0  0  0
  9 12  1  0  0  0  0
 11 13  1  0  0  0  0
 12 14  2  0  0  0  0
 12 15  1  0  0  0  0
 13 16  1  0  0  0  0
 14 17  1  0  0  0  0
 15 18  2  0  0  0  0
 17 19  2  0  0  0  0
 19 20  1  0  0  0  0
 20 21  2  0  0  0  0
 20 22  1  0  0  0  0
 21 23  1  0  0  0  0
 21 24  1  0  0  0  0
 22 25  2  0  0  0  0
 23 26  1  0  0  0  0
 23 27  2  0  0  0  0
 24 28  2  0  0  0  0
 26 29  2  0  0  0  0
 27 30  1  0  0  0  0
  5  6  1  0  0  0  0
 18 19  1  0  0  0  0
 25 28  1  0  0  0  0
 29 30  1  0  0  0  0
M  RAD  1  30   2
M  END

>  <name>
Losartan

>  <ROTATABLE_BONDCOUNT>
8

>  <HBDScore>
0.8333333333333334

>  <logD>
4.20

>  <MPOScore>
3.7911190476190475

>  <logDScore>
0.0

>  <MW>
421.91

>  <charge_dist(7.4)>
0.00

>  <CNS>
TRUE

>  <ArRings>
4

>  <HBD>
1

>  <BALABAN_INDEX>
1.19

>  <bpKa>
3.85

>  <TPSAScore>
1.0

>  <MWScore>
0.5577857142857141

>  <bpKaScore>
1.0

>  <logPScore>
0.3999999999999999

>  <MPO_area>
42.02

>  <TPSA>
89.61

>  <logP>
4.20

$$$$

  Mrv1722703221715202D          

 29 31  0  0  0  0            999 V2000
    0.0000    0.0000    0.0000 O   0  0  0  0  0  0  0  0  0  0  0  0
    0.6709   -0.4755    0.0000 C   0  0  0  0  0  0  0  0  0  0  0  0
    1.4198   -0.1238    0.0000 O   0  0  0  0  0  0  0  0  0  0  0  0
    0.5861   -1.2960    0.0000 C   0  0  0  0  0  0  0  0  0  0  0  0
    2.0907   -0.5992    0.0000 C   0  0  1  0  0  0  0  0  0  0  0  0
    1.2570   -1.7715    0.0000 C   0  0  1  0  0  0  0  0  0  0  0  0
    2.0060   -1.4198    0.0000 C   0  0  0  0  0  0  0  0  0  0  0  0
    2.8396   -0.2475    0.0000 C   0  0  0  0  0  0  0  0  0  0  0  0
    1.1723   -2.5921    0.0000 O   0  0  0  0  0  0  0  0  0  0  0  0
    3.5105   -0.7229    0.0000 C   0  0  0  0  0  0  0  0  0  0  0  0
    4.2595   -0.3712    0.0000 C   0  0  2  0  0  0  0  0  0  0  0  0
    4.9303   -0.8467    0.0000 C   0  0  2  0  0  0  0  0  0  0  0  0
    4.3311    0.4624    0.0000 C   0  0  2  0  0  0  0  0  0  0  0  0
    5.6793   -0.4950    0.0000 C   0  0  0  0  0  0  0  0  0  0  0  0
    4.8456   -1.6673    0.0000 C   0  0  1  0  0  0  0  0  0  0  0  0
    5.0801    0.8141    0.0000 C   0  0  0  0  0  0  0  0  0  0  0  0
    3.6472    0.9509    0.0000 C   0  0  0  0  0  0  0  0  0  0  0  0
    5.7509    0.3387    0.0000 C   0  0  0  0  0  0  0  0  0  0  0  0
    6.3501   -0.9704    0.0000 C   0  0  0  0  0  0  0  0  0  0  0  0
    4.0836   -2.0060    0.0000 O   0  0  0  0  0  0  0  0  0  0  0  0
    5.5164   -2.1427    0.0000 C   0  0  0  0  0  0  0  0  0  0  0  0
    6.2654   -1.7910    0.0000 C   0  0  1  0  0  0  0  0  0  0  0  0
    3.9989   -2.8266    0.0000 C   0  0  0  0  0  0  0  0  0  0  0  0
    6.9363   -2.2665    0.0000 C   0  0  0  0  0  0  0  0  0  0  0  0
    4.6697   -3.3020    0.0000 O   0  0  0  0  0  0  0  0  0  0  0  0
    3.2369   -3.1653    0.0000 C   0  0  2  0  0  0  0  0  0  0  0  0
    2.5530   -2.6768    0.0000 C   0  0  0  0  0  0  0  0  0  0  0  0
    3.1523   -3.9859    0.0000 C   0  0  0  0  0  0  0  0  0  0  0  0
    1.7910   -3.0155    0.0000 C   0  0  0  0  0  0  0  0  0  0  0  0
  1  2  2  0  0  0  0
  2  3  1  0  0  0  0
  2  4  1  0  0  0  0
  3  5  1  0  0  0  0
  4  6  1  0  0  0  0
  5  7  1  0  0  0  0
  5  8  1  6  0  0  0
  6  9  1  1  0  0  0
  8 10  1  0  0  0  0
 11 10  1  1  0  0  0
 11 12  1  0  0  0  0
 11 13  1  0  0  0  0
 12 14  1  6  0  0  0
 12 15  1  0  0  0  0
 13 16  1  0  0  0  0
 13 17  1  1  0  0  0
 14 18  1  0  0  0  0
 14 19  2  0  0  0  0
 15 20  1  6  0  0  0
 15 21  1  0  0  0  0
 19 22  1  0  0  0  0
 20 23  1  0  0  0  0
 22 24  1  6  0  0  0
 23 25  2  0  0  0  0
 23 26  1  0  0  0  0
 26 27  1  0  0  0  0
 26 28  1  1  0  0  0
 27 29  1  0  0  0  0
  6  7  1  0  0  0  0
 16 18  2  0  0  0  0
 21 22  1  0  0  0  0
M  END

>  <name>
Lovastatin

>  <ROTATABLE_BONDCOUNT>
7

>  <HBDScore>
0.8333333333333334

>  <dipole>
3.31

>  <logD>
3.90

>  <MPOScore>
4.115140476190476

>  <logDScore>
0.050000000000000044

>  <MW>
404.547

>  <charge_dist(7.4)>
-0.00

>  <CNS>
TRUE

>  <ArRings>
0

>  <HBD>
1

>  <BALABAN_INDEX>
1.52

>  <bpKa>
-2.84

>  <TPSAScore>
1.0

>  <MWScore>
0.6818071428571426

>  <bpKaScore>
1.0

>  <logPScore>
0.55

>  <MPO_area>
47.57

>  <TPSA>
72.83

>  <logP>
3.90

$$$$

  Mrv1722703221715202D          

 35 41  0  0  1  0            999 V2000
    0.0000    0.0000    0.0000 S   0  0  0  0  0  0  0  0  0  0  0  0
   -0.8081   -0.1668    0.0000 N   0  0  0  0  0  0  0  0  0  0  0  0
    0.0769    0.8209    0.0000 C   0  0  0  0  0  0  0  0  0  0  0  0
   -1.2250    0.5452    0.0000 C   0  0  0  0  0  0  0  0  0  0  0  0
   -0.6799    1.1608    0.0000 C   0  0  0  0  0  0  0  0  0  0  0  0
    0.7312    1.3084    0.0000 C   0  0  0  0  0  0  0  0  0  0  0  0
   -2.0459    0.6349    0.0000 N   0  0  0  0  0  0  0  0  0  0  0  0
   -0.7760    1.9818    0.0000 C   0  0  0  0  0  0  0  0  0  0  0  0
    0.6349    2.1293    0.0000 C   0  0  0  0  0  0  0  0  0  0  0  0
   -2.5333   -0.0256    0.0000 C   0  0  0  0  0  0  0  0  0  0  0  0
   -2.3859    1.3853    0.0000 C   0  0  0  0  0  0  0  0  0  0  0  0
   -0.1218    2.4692    0.0000 C   0  0  0  0  0  0  0  0  0  0  0  0
   -3.3543    0.0641    0.0000 C   0  0  0  0  0  0  0  0  0  0  0  0
   -3.2068    1.4751    0.0000 C   0  0  0  0  0  0  0  0  0  0  0  0
   -3.6942    0.8145    0.0000 N   0  0  0  0  0  0  0  0  0  0  0  0
   -4.5152    0.9043    0.0000 C   0  0  0  0  0  0  0  0  0  0  0  0
   -5.0026    0.2437    0.0000 C   0  0  2  0  0  0  0  0  0  0  0  0
   -5.8235    0.3335    0.0000 C   0  0  2  0  0  0  0  0  0  0  0  0
   -4.6755   -0.4939    0.0000 C   0  0  0  0  0  0  0  0  0  0  0  0
   -6.3109   -0.3271    0.0000 C   0  0  0  0  0  0  0  0  0  0  0  0
   -6.1634    1.0839    0.0000 C   0  0  0  0  0  0  0  0  0  0  0  0
   -5.1629   -1.1544    0.0000 C   0  0  0  0  0  0  0  0  0  0  0  0
   -5.9838   -1.0647    0.0000 C   0  0  0  0  0  0  0  0  0  0  0  0
   -6.9844    1.1737    0.0000 N   0  0  0  0  0  0  0  0  0  0  0  0
   -7.5359    0.5708    0.0000 C   0  0  0  0  0  0  0  0  0  0  0  0
   -7.4012    1.8856    0.0000 C   0  0  0  0  0  0  0  0  0  0  0  0
   -7.3692   -0.2245    0.0000 O   0  0  0  0  0  0  0  0  0  0  0  0
   -8.2927    0.9107    0.0000 C   0  0  2  0  0  0  0  0  0  0  0  0
   -7.0741    2.6424    0.0000 O   0  0  0  0  0  0  0  0  0  0  0  0
   -8.2093    1.7188    0.0000 C   0  0  1  0  0  0  0  0  0  0  0  0
   -9.1009    0.7440    0.0000 C   0  0  1  0  0  0  0  0  0  0  0  0
   -8.9661    2.0588    0.0000 C   0  0  2  0  0  0  0  0  0  0  0  0
   -8.5621    1.3597    0.0000 C   0  0  0  0  0  0  0  0  0  0  0  0
   -9.8576    1.0839    0.0000 C   0  0  0  0  0  0  0  0  0  0  0  0
   -9.7743    1.8920    0.0000 C   0  0  0  0  0  0  0  0  0  0  0  0
  1  2  1  0  0  0  0
  1  3  1  0  0  0  0
  2  4  2  0  0  0  0
  3  5  2  0  0  0  0
  3  6  1  0  0  0  0
  4  7  1  0  0  0  0
  5  8  1  0  0  0  0
  6  9  2  0  0  0  0
  7 10  1  0  0  0  0
  7 11  1  0  0  0  0
  8 12  2  0  0  0  0
 10 13  1  0  0  0  0
 11 14  1  0  0  0  0
 13 15  1  0  0  0  0
 15 16  1  0  0  0  0
 17 16  1  1  0  0  0
 17 18  1  0  0  0  0
 17 19  1  0  0  0  0
 18 20  1  0  0  0  0
 18 21  1  6  0  0  0
 19 22  1  0  0  0  0
 20 23  1  0  0  0  0
 21 24  1  0  0  0  0
 24 25  1  0  0  0  0
 24 26  1  0  0  0  0
 25 27  2  0  0  0  0
 28 25  1  1  0  0  0
 26 29  2  0  0  0  0
 30 26  1  1  0  0  0
 28 31  1  0  0  0  0
 30 32  1  0  0  0  0
 31 33  1  1  0  0  0
 31 34  1  0  0  0  0
 32 35  1  6  0  0  0
  4  5  1  0  0  0  0
  9 12  1  0  0  0  0
 14 15  1  0  0  0  0
 22 23  1  0  0  0  0
 28 30  1  0  0  0  0
 32 33  1  0  0  0  0
 34 35  1  0  0  0  0
M  END

>  <name>
Lurasidone

>  <ROTATABLE_BONDCOUNT>
5

>  <HBDScore>
1.0

>  <dipole>
3.88

>  <logD>
3.43

>  <MPOScore>
3.3072857142857144

>  <logDScore>
0.2849999999999999

>  <MW>
492.68

>  <charge_dist(7.4)>
0.93

>  <CNS>
TRUE

>  <ArRings>
2

>  <HBD>
0

>  <BALABAN_INDEX>
0.92

>  <bpKa>
8.5

>  <TPSAScore>
1.0

>  <MWScore>
0.05228571428571427

>  <bpKaScore>
0.75

>  <logPScore>
0.2200000000000002

>  <MPO_area>
34.84

>  <TPSA>
56.75

>  <logP>
4.56

$$$$

  Mrv1722703221715202D          

 21 24  0  0  0  0            999 V2000
    0.0000    0.0000    0.0000 N   0  0  0  0  0  0  0  0  0  0  0  0
   -0.7596   -0.3218    0.0000 C   0  0  0  0  0  0  0  0  0  0  0  0
    0.6566   -0.4828    0.0000 C   0  0  0  0  0  0  0  0  0  0  0  0
   -1.4291    0.1738    0.0000 C   0  0  0  0  0  0  0  0  0  0  0  0
   -2.1887   -0.1481    0.0000 C   0  0  0  0  0  0  0  0  0  0  0  0
   -2.8582    0.3476    0.0000 C   0  0  0  0  0  0  0  0  0  0  0  0
   -2.7680    1.1716    0.0000 C   0  0  0  0  0  0  0  0  0  0  0  0
   -3.6178    0.0257    0.0000 C   0  0  0  0  0  0  0  0  0  0  0  0
   -3.2444    0.5987    0.0000 C   0  0  0  0  0  0  0  0  0  0  0  0
   -3.4375    1.6673    0.0000 C   0  0  0  0  0  0  0  0  0  0  0  0
   -2.0213    1.5063    0.0000 C   0  0  0  0  0  0  0  0  0  0  0  0
   -4.2872    0.5214    0.0000 C   0  0  0  0  0  0  0  0  0  0  0  0
   -3.7208   -0.7853    0.0000 C   0  0  0  0  0  0  0  0  0  0  0  0
   -3.8495    1.0493    0.0000 C   0  0  0  0  0  0  0  0  0  0  0  0
   -3.3474    2.4912    0.0000 C   0  0  0  0  0  0  0  0  0  0  0  0
   -4.1971    1.3454    0.0000 C   0  0  0  0  0  0  0  0  0  0  0  0
   -1.9312    2.3303    0.0000 C   0  0  0  0  0  0  0  0  0  0  0  0
   -5.0468    0.1996    0.0000 C   0  0  0  0  0  0  0  0  0  0  0  0
   -4.4804   -1.1072    0.0000 C   0  0  0  0  0  0  0  0  0  0  0  0
   -2.6007    2.8260    0.0000 C   0  0  0  0  0  0  0  0  0  0  0  0
   -5.1498   -0.6116    0.0000 C   0  0  0  0  0  0  0  0  0  0  0  0
  1  2  1  0  0  0  0
  1  3  1  0  0  0  0
  2  4  1  0  0  0  0
  4  5  1  0  0  0  0
  5  6  1  0  0  0  0
  6  7  1  0  0  0  0
  6  8  1  0  0  0  0
  6  9  1  0  0  0  0
  7 10  2  0  0  0  0
  7 11  1  0  0  0  0
  8 12  2  0  0  0  0
  8 13  1  0  0  0  0
  9 14  1  0  0  0  0
 10 15  1  0  0  0  0
 10 16  1  0  0  0  0
 11 17  2  0  0  0  0
 12 18  1  0  0  0  0
 13 19  2  0  0  0  0
 15 20  2  0  0  0  0
 18 21  2  0  0  0  0
 12 16  1  0  0  0  0
 14 16  1  0  0  0  0
 17 20  1  0  0  0  0
 19 21  1  0  0  0  0
M  END

>  <name>
Maprotiline

>  <ROTATABLE_BONDCOUNT>
4

>  <HBDScore>
0.8333333333333334

>  <dipole>
1.28

>  <logD>
1.48

>  <MPOScore>
3.1483333333333334

>  <logDScore>
1.0

>  <MW>
277.411

>  <charge_dist(7.4)>
1.00

>  <CNS>
TRUE

>  <ArRings>
2

>  <HBD>
1

>  <BALABAN_INDEX>
1.36

>  <bpKa>
10.54

>  <TPSAScore>
0.0

>  <MWScore>
1.0

>  <bpKaScore>
0.0

>  <logPScore>
0.31499999999999995

>  <MPO_area>
34.93

>  <TPSA>
12.03

>  <logP>
4.37

$$$$

  Mrv1722703221715202D          

 37 41  0  0  1  0            999 V2000
    0.0000    0.0000    0.0000 F   0  0  0  0  0  0  0  0  0  0  0  0
   -0.2338   -0.7859    0.0000 C   0  0  0  0  0  0  0  0  0  0  0  0
    0.5845   -0.8638    0.0000 F   0  0  0  0  0  0  0  0  0  0  0  0
   -0.1819   -1.6042    0.0000 C   0  0  0  0  0  0  0  0  0  0  0  0
   -0.9872   -0.4157    0.0000 C   0  0  0  0  0  0  0  0  0  0  0  0
   -0.8703   -2.0588    0.0000 C   0  0  0  0  0  0  0  0  0  0  0  0
   -1.6756   -0.8703    0.0000 C   0  0  0  0  0  0  0  0  0  0  0  0
   -1.6237   -1.6886    0.0000 C   0  0  0  0  0  0  0  0  0  0  0  0
   -2.3121   -2.1432    0.0000 C   0  0  0  0  0  0  0  0  0  0  0  0
   -2.2601   -2.9616    0.0000 O   0  0  0  0  0  0  0  0  0  0  0  0
   -3.0655   -1.7731    0.0000 N   0  0  0  0  0  0  0  0  0  0  0  0
   -3.7539   -2.2277    0.0000 C   0  0  2  0  0  0  0  0  0  0  0  0
   -3.7020   -3.0460    0.0000 C   0  0  0  0  0  0  0  0  0  0  0  0
   -4.5073   -1.8575    0.0000 C   0  0  0  0  0  0  0  0  0  0  0  0
   -4.3904   -3.5006    0.0000 C   0  0  0  0  0  0  0  0  0  0  0  0
   -2.9616   -3.4032    0.0000 C   0  0  0  0  0  0  0  0  0  0  0  0
   -4.5722   -1.0262    0.0000 C   0  0  0  0  0  0  0  0  0  0  0  0
   -4.3384   -4.3190    0.0000 C   0  0  0  0  0  0  0  0  0  0  0  0
   -2.9096   -4.2215    0.0000 C   0  0  0  0  0  0  0  0  0  0  0  0
   -5.3256   -0.6559    0.0000 N   0  0  0  0  0  0  0  0  0  0  0  0
   -3.5980   -4.6762    0.0000 C   0  0  0  0  0  0  0  0  0  0  0  0
   -5.4750    0.1624    0.0000 C   0  0  1  0  0  0  0  0  0  0  0  0
   -6.0595   -1.0391    0.0000 C   0  0  2  0  0  0  0  0  0  0  0  0
   -4.6957   -0.1039    0.0000 C   0  0  0  0  0  0  0  0  0  0  0  0
   -6.2998    0.2793    0.0000 C   0  0  0  0  0  0  0  0  0  0  0  0
   -5.3191   -1.3964    0.0000 C   0  0  0  0  0  0  0  0  0  0  0  0
   -6.6635   -0.4611    0.0000 C   0  0  0  0  0  0  0  0  0  0  0  0
   -4.6437   -0.9222    0.0000 C   0  0  2  0  0  0  0  0  0  0  0  0
   -3.9033   -1.2794    0.0000 N   0  0  0  0  0  0  0  0  0  0  0  0
   -3.1824   -0.8832    0.0000 C   0  0  0  0  0  0  0  0  0  0  0  0
   -3.7669   -2.0848    0.0000 C   0  0  0  0  0  0  0  0  0  0  0  0
   -2.5914   -1.4483    0.0000 N   0  0  0  0  0  0  0  0  0  0  0  0
   -3.0785   -0.0584    0.0000 C   0  0  0  0  0  0  0  0  0  0  0  0
   -2.9551   -2.1887    0.0000 N   0  0  0  0  0  0  0  0  0  0  0  0
   -4.3449   -2.6758    0.0000 C   0  0  0  0  0  0  0  0  0  0  0  0
   -2.3186    0.2598    0.0000 C   0  0  0  0  0  0  0  0  0  0  0  0
   -3.7409    0.4546    0.0000 C   0  0  0  0  0  0  0  0  0  0  0  0
  1  2  1  0  0  0  0
  2  3  1  0  0  0  0
  2  4  1  0  0  0  0
  2  5  1  0  0  0  0
  4  6  1  0  0  0  0
  5  7  1  0  0  0  0
  6  8  1  0  0  0  0
  8  9  1  0  0  0  0
  9 10  2  0  0  0  0
  9 11  1  0  0  0  0
 12 11  1  6  0  0  0
 12 13  1  0  0  0  0
 12 14  1  0  0  0  0
 13 15  2  0  0  0  0
 13 16  1  0  0  0  0
 14 17  1  0  0  0  0
 15 18  1  0  0  0  0
 16 19  2  0  0  0  0
 17 20  1  0  0  0  0
 18 21  2  0  0  0  0
 22 20  1  1  0  0  0
 23 20  1  1  0  0  0
 22 24  1  0  0  0  0
 22 25  1  0  0  0  0
 23 26  1  0  0  0  0
 23 27  1  0  0  0  0
 24 28  1  0  0  0  0
 28 29  1  1  0  0  0
 29 30  1  0  0  0  0
 29 31  1  0  0  0  0
 30 32  2  0  0  0  0
 30 33  1  0  0  0  0
 31 34  2  0  0  0  0
 31 35  1  0  0  0  0
 33 36  1  0  0  0  0
 33 37  1  0  0  0  0
  7  8  1  0  0  0  0
 19 21  1  0  0  0  0
 25 27  1  0  0  0  0
 26 28  1  0  0  0  0
 32 34  1  0  0  0  0
M  END

>  <name>
Maraviroc

>  <ROTATABLE_BONDCOUNT>
8

>  <HBDScore>
0.8333333333333334

>  <dipole>
6.47

>  <logD>
1.40

>  <MPOScore>
3.6933333333333334

>  <logDScore>
1.0

>  <MW>
513.678

>  <charge_dist(7.4)>
0.99

>  <CNS>
TRUE

>  <ArRings>
2

>  <HBD>
1

>  <BALABAN_INDEX>
1.04

>  <bpKa>
9.65

>  <TPSAScore>
1.0

>  <MWScore>
0.0

>  <bpKaScore>
0.17499999999999982

>  <logPScore>
0.685

>  <MPO_area>
42.07

>  <TPSA>
63.05

>  <logP>
3.63

$$$$

  Mrv1722703221715202D          

 20 23  0  0  0  0            999 V2000
    0.0000    0.0000    0.0000 Cl  0  0  0  0  0  0  0  0  0  0  0  0
   -0.8233   -0.0579    0.0000 C   0  0  0  0  0  0  0  0  0  0  0  0
   -1.1835   -0.7847    0.0000 C   0  0  0  0  0  0  0  0  0  0  0  0
   -1.2928    0.6239    0.0000 C   0  0  0  0  0  0  0  0  0  0  0  0
   -2.0068   -0.8426    0.0000 C   0  0  0  0  0  0  0  0  0  0  0  0
   -2.1161    0.5660    0.0000 C   0  0  0  0  0  0  0  0  0  0  0  0
   -2.4764   -0.1608    0.0000 C   0  0  0  0  0  0  0  0  0  0  0  0
   -3.2997   -0.2187    0.0000 C   0  0  2  0  0  0  0  0  0  0  0  0
   -3.1581   -1.0162    0.0000 O   0  0  0  0  0  0  0  0  0  0  0  0
   -4.0908   -0.4438    0.0000 N   0  0  0  0  0  0  0  0  0  0  0  0
   -3.2804    0.6046    0.0000 C   0  0  0  0  0  0  0  0  0  0  0  0
   -4.5603    0.2380    0.0000 C   0  0  0  0  0  0  0  0  0  0  0  0
   -4.5989   -1.0870    0.0000 C   0  0  0  0  0  0  0  0  0  0  0  0
   -4.0586    0.8877    0.0000 C   0  0  0  0  0  0  0  0  0  0  0  0
   -2.6629    1.1385    0.0000 C   0  0  0  0  0  0  0  0  0  0  0  0
   -5.3515    0.0129    0.0000 N   0  0  0  0  0  0  0  0  0  0  0  0
   -5.3772   -0.8040    0.0000 C   0  0  0  0  0  0  0  0  0  0  0  0
   -4.2130    1.6981    0.0000 C   0  0  0  0  0  0  0  0  0  0  0  0
   -2.8173    1.9489    0.0000 C   0  0  0  0  0  0  0  0  0  0  0  0
   -3.5956    2.2320    0.0000 C   0  0  0  0  0  0  0  0  0  0  0  0
  1  2  1  0  0  0  0
  2  3  2  0  0  0  0
  2  4  1  0  0  0  0
  3  5  1  0  0  0  0
  4  6  2  0  0  0  0
  5  7  2  0  0  0  0
  7  8  1  0  0  0  0
  8  9  1  1  0  0  0
  8 10  1  0  0  0  0
  8 11  1  0  0  0  0
 10 12  1  0  0  0  0
 10 13  1  0  0  0  0
 11 14  2  0  0  0  0
 11 15  1  0  0  0  0
 12 16  2  0  0  0  0
 13 17  1  0  0  0  0
 14 18  1  0  0  0  0
 15 19  2  0  0  0  0
 18 20  2  0  0  0  0
  6  7  1  0  0  0  0
 12 14  1  0  0  0  0
 16 17  1  0  0  0  0
 19 20  1  0  0  0  0
M  END

>  <name>
Mazindol

>  <ROTATABLE_BONDCOUNT>
1

>  <HBDScore>
0.8333333333333334

>  <dipole>
3.98

>  <logD>
3.44

>  <MPOScore>
4.684833333333334

>  <logDScore>
0.28

>  <MW>
284.74

>  <charge_dist(7.4)>
0.00

>  <CNS>
TRUE

>  <ArRings>
2

>  <HBD>
1

>  <BALABAN_INDEX>
1.42

>  <bpKa>
3.86

>  <TPSAScore>
0.7915

>  <MWScore>
1.0

>  <bpKaScore>
1.0

>  <logPScore>
0.78

>  <MPO_area>
60.14

>  <TPSA>
35.83

>  <logP>
3.44

$$$$

  Mrv1722703221715202D          

 12 13  0  0  0  0            999 V2000
    0.0000    0.0000    0.0000 N   0  0  0  0  0  0  0  0  0  0  0  0
   -0.7435   -0.3556    0.0000 C   0  0  2  0  0  0  0  0  0  0  0  0
    0.6724   -0.4526    0.0000 C   0  0  0  0  0  0  0  0  0  0  0  0
   -1.0280    0.4202    0.0000 C   0  0  0  0  0  0  0  0  0  0  0  0
   -1.3965   -0.8534    0.0000 C   0  0  2  0  0  0  0  0  0  0  0  0
   -0.3168   -1.0474    0.0000 C   0  0  0  0  0  0  0  0  0  0  0  0
   -1.8555    0.4008    0.0000 C   0  0  1  0  0  0  0  0  0  0  0  0
   -0.2392    0.6271    0.0000 C   0  0  0  0  0  0  0  0  0  0  0  0
   -1.1508    1.2413    0.0000 C   0  0  0  0  0  0  0  0  0  0  0  0
   -1.1767   -0.0582    0.0000 C   0  0  0  0  0  0  0  0  0  0  0  0
   -2.2240   -0.8728    0.0000 C   0  0  0  0  0  0  0  0  0  0  0  0
   -2.5085   -0.0970    0.0000 C   0  0  0  0  0  0  0  0  0  0  0  0
  2  1  1  1  0  0  0
  1  3  1  0  0  0  0
  2  4  1  0  0  0  0
  2  5  1  0  0  0  0
  2  6  1  0  0  0  0
  4  7  1  0  0  0  0
  4  8  1  0  0  0  0
  4  9  1  0  0  0  0
  5 10  1  6  0  0  0
  5 11  1  0  0  0  0
  7 12  1  1  0  0  0
  7 10  1  0  0  0  0
 11 12  1  0  0  0  0
M  END

>  <name>
Mecamylamine

>  <ROTATABLE_BONDCOUNT>
1

>  <HBDScore>
0.8333333333333334

>  <dipole>
0.74

>  <logD>
-0.67

>  <MPOScore>
3.8333333333333335

>  <logDScore>
1.0

>  <MW>
167.296

>  <charge_dist(7.4)>
1.00

>  <CNS>
TRUE

>  <ArRings>
0

>  <HBD>
1

>  <BALABAN_INDEX>
2.16

>  <bpKa>
10.88

>  <TPSAScore>
0.0

>  <MWScore>
1.0

>  <bpKaScore>
0.0

>  <logPScore>
1.0

>  <MPO_area>
47.22

>  <TPSA>
12.03

>  <logP>
2.37

$$$$

  Mrv1722703221715202D          

 26 28  0  0  0  0            999 V2000
    0.0000    0.0000    0.0000 F   0  0  0  0  0  0  0  0  0  0  0  0
   -0.0973    0.8301    0.0000 C   0  0  0  0  0  0  0  0  0  0  0  0
   -0.9274    0.7458    0.0000 F   0  0  0  0  0  0  0  0  0  0  0  0
    0.7199    0.9274    0.0000 F   0  0  0  0  0  0  0  0  0  0  0  0
   -0.1946    1.6603    0.0000 C   0  0  0  0  0  0  0  0  0  0  0  0
   -0.9598    2.0040    0.0000 N   0  0  0  0  0  0  0  0  0  0  0  0
    0.4669    2.1531    0.0000 C   0  0  0  0  0  0  0  0  0  0  0  0
   -1.0571    2.8341    0.0000 C   0  0  0  0  0  0  0  0  0  0  0  0
    0.3697    2.9833    0.0000 C   0  0  0  0  0  0  0  0  0  0  0  0
   -0.3956    3.3270    0.0000 C   0  0  0  0  0  0  0  0  0  0  0  0
   -1.8224    3.1779    0.0000 C   0  0  0  0  0  0  0  0  0  0  0  0
    1.0312    3.4761    0.0000 C   0  0  1  0  0  0  0  0  0  0  0  0
   -0.4929    4.1571    0.0000 C   0  0  0  0  0  0  0  0  0  0  0  0
   -1.9197    4.0079    0.0000 C   0  0  0  0  0  0  0  0  0  0  0  0
   -2.4969    2.6979    0.0000 C   0  0  0  0  0  0  0  0  0  0  0  0
    0.9339    4.3063    0.0000 O   0  0  0  0  0  0  0  0  0  0  0  0
    1.7835    3.1454    0.0000 C   0  0  1  0  0  0  0  0  0  0  0  0
   -1.2582    4.5009    0.0000 C   0  0  0  0  0  0  0  0  0  0  0  0
   -3.1713    2.2180    0.0000 F   0  0  0  0  0  0  0  0  0  0  0  0
   -2.9898    3.3724    0.0000 F   0  0  0  0  0  0  0  0  0  0  0  0
   -2.0170    2.0364    0.0000 F   0  0  0  0  0  0  0  0  0  0  0  0
    1.8678    2.3283    0.0000 N   0  0  0  0  0  0  0  0  0  0  0  0
    2.4450    3.6383    0.0000 C   0  0  0  0  0  0  0  0  0  0  0  0
    2.6201    1.9975    0.0000 C   0  0  0  0  0  0  0  0  0  0  0  0
    3.1973    3.3076    0.0000 C   0  0  0  0  0  0  0  0  0  0  0  0
    3.2816    2.4904    0.0000 C   0  0  0  0  0  0  0  0  0  0  0  0
  1  2  1  0  0  0  0
  2  3  1  0  0  0  0
  2  4  1  0  0  0  0
  2  5  1  0  0  0  0
  5  6  2  0  0  0  0
  5  7  1  0  0  0  0
  6  8  1  0  0  0  0
  7  9  2  0  0  0  0
  8 10  2  0  0  0  0
  8 11  1  0  0  0  0
  9 12  1  0  0  0  0
 10 13  1  0  0  0  0
 11 14  2  0  0  0  0
 11 15  1  0  0  0  0
 12 16  1  1  0  0  0
 12 17  1  0  0  0  0
 13 18  2  0  0  0  0
 15 19  1  0  0  0  0
 15 20  1  0  0  0  0
 15 21  1  0  0  0  0
 17 22  1  6  0  0  0
 17 23  1  0  0  0  0
 22 24  1  0  0  0  0
 23 25  1  0  0  0  0
 24 26  1  0  0  0  0
  9 10  1  0  0  0  0
 14 18  1  0  0  0  0
 25 26  1  0  0  0  0
M  END

>  <name>
Mefloquine

>  <ROTATABLE_BONDCOUNT>
4

>  <HBDScore>
0.5

>  <dipole>
8.98

>  <logD>
2.07

>  <MPOScore>
4.049157142857142

>  <logDScore>
0.9650000000000001

>  <MW>
378.318

>  <charge_dist(7.4)>
0.99

>  <CNS>
TRUE

>  <ArRings>
2

>  <HBD>
2

>  <BALABAN_INDEX>
1.86

>  <bpKa>
9.46

>  <TPSAScore>
1.0

>  <MWScore>
0.869157142857143

>  <bpKaScore>
0.2699999999999996

>  <logPScore>
0.44499999999999984

>  <MPO_area>
47.52

>  <TPSA>
45.15

>  <logP>
4.11

$$$$

  Mrv1722703221715202D          

 13 15  0  0  0  0            999 V2000
    0.0000    0.0000    0.0000 N   0  0  0  0  0  0  0  0  0  0  0  0
    0.4506   -0.6759    0.0000 C   0  0  0  0  0  0  0  0  0  0  0  0
    1.2672   -0.6055    0.0000 C   0  0  0  0  0  0  0  0  0  0  0  0
    0.0704   -1.4081    0.0000 C   0  0  0  0  0  0  0  0  0  0  0  0
   -0.3943   -0.7181    0.0000 C   0  0  0  0  0  0  0  0  0  0  0  0
    1.7179   -1.2813    0.0000 C   0  0  0  0  0  0  0  0  0  0  0  0
    0.5210   -2.0839    0.0000 C   0  0  0  0  0  0  0  0  0  0  0  0
   -0.7744   -1.4503    0.0000 C   0  0  0  0  0  0  0  0  0  0  0  0
    1.3377   -2.0136    0.0000 C   0  0  0  0  0  0  0  0  0  0  0  0
   -0.0845   -0.9716    0.0000 C   0  0  0  0  0  0  0  0  0  0  0  0
    2.5346   -1.2110    0.0000 C   0  0  0  0  0  0  0  0  0  0  0  0
   -0.3239   -2.1262    0.0000 C   0  0  0  0  0  0  0  0  0  0  0  0
    0.1408   -2.8162    0.0000 C   0  0  0  0  0  0  0  0  0  0  0  0
  1  2  1  0  0  0  0
  2  3  1  0  0  0  0
  2  4  1  0  0  0  0
  2  5  1  0  0  0  0
  3  6  1  0  0  0  0
  4  7  1  0  0  0  0
  5  8  1  0  0  0  0
  6  9  1  0  0  0  0
  6 10  1  0  0  0  0
  6 11  1  0  0  0  0
  7 12  1  0  0  0  0
  7 13  1  0  0  0  0
  7  9  1  0  0  0  0
  8 10  1  0  0  0  0
  8 12  1  0  0  0  0
M  END

>  <name>
Memantine

>  <ROTATABLE_BONDCOUNT>
0

>  <HBDScore>
0.8333333333333334

>  <dipole>
0.87

>  <logD>
-0.78

>  <MPOScore>
4.134333333333333

>  <logDScore>
1.0

>  <MW>
179.307

>  <charge_dist(7.4)>
1.00

>  <CNS>
TRUE

>  <ArRings>
0

>  <HBD>
1

>  <BALABAN_INDEX>
1.63

>  <bpKa>
10.7

>  <TPSAScore>
0.301

>  <MWScore>
1.0

>  <bpKaScore>
0.0

>  <logPScore>
1.0

>  <MPO_area>
51.4

>  <TPSA>
26.02

>  <logP>
2.07

$$$$

  Mrv1722703221715202D          

 18 19  0  0  0  0            999 V2000
    0.0000    0.0000    0.0000 O   0  0  0  0  0  0  0  0  0  0  0  0
    0.8172   -0.0519    0.0000 C   0  0  0  0  0  0  0  0  0  0  0  0
    1.2712    0.6421    0.0000 O   0  0  0  0  0  0  0  0  0  0  0  0
    1.1739   -0.7848    0.0000 C   0  0  0  0  0  0  0  0  0  0  0  0
    0.9015    1.3879    0.0000 C   0  0  0  0  0  0  0  0  0  0  0  0
    0.3762   -1.0053    0.0000 C   0  0  0  0  0  0  0  0  0  0  0  0
    1.2582   -1.6020    0.0000 C   0  0  0  0  0  0  0  0  0  0  0  0
    1.8355   -0.2918    0.0000 C   0  0  0  0  0  0  0  0  0  0  0  0
    1.3555    2.0819    0.0000 C   0  0  0  0  0  0  0  0  0  0  0  0
   -0.2270   -0.4281    0.0000 C   0  0  0  0  0  0  0  0  0  0  0  0
    0.1687   -1.8030    0.0000 C   0  0  0  0  0  0  0  0  0  0  0  0
    2.0041   -1.9328    0.0000 C   0  0  0  0  0  0  0  0  0  0  0  0
    2.5813   -0.6226    0.0000 C   0  0  0  0  0  0  0  0  0  0  0  0
   -1.0247   -0.6486    0.0000 C   0  0  0  0  0  0  0  0  0  0  0  0
   -0.6291   -2.0235    0.0000 C   0  0  0  0  0  0  0  0  0  0  0  0
    2.6657   -1.4398    0.0000 N   0  0  0  0  0  0  0  0  0  0  0  0
   -1.2323   -1.4463    0.0000 C   0  0  0  0  0  0  0  0  0  0  0  0
    3.4115   -1.7706    0.0000 C   0  0  0  0  0  0  0  0  0  0  0  0
  1  2  2  0  0  0  0
  2  3  1  0  0  0  0
  2  4  1  0  0  0  0
  3  5  1  0  0  0  0
  4  6  1  0  0  0  0
  4  7  1  0  0  0  0
  4  8  1  0  0  0  0
  5  9  1  0  0  0  0
  6 10  2  0  0  0  0
  6 11  1  0  0  0  0
  7 12  1  0  0  0  0
  8 13  1  0  0  0  0
 10 14  1  0  0  0  0
 11 15  2  0  0  0  0
 12 16  1  0  0  0  0
 14 17  2  0  0  0  0
 16 18  1  0  0  0  0
 13 16  1  0  0  0  0
 15 17  1  0  0  0  0
M  END

>  <name>
Meperidine

>  <ROTATABLE_BONDCOUNT>
4

>  <HBDScore>
1.0

>  <dipole>
1.98

>  <logD>
1.63

>  <MPOScore>
5.397

>  <logDScore>
1.0

>  <MW>
247.338

>  <charge_dist(7.4)>
0.85

>  <CNS>
TRUE

>  <ArRings>
1

>  <HBD>
0

>  <BALABAN_INDEX>
1.99

>  <bpKa>
8.16

>  <TPSAScore>
0.477

>  <MWScore>
1.0

>  <bpKaScore>
0.9199999999999999

>  <logPScore>
1.0

>  <MPO_area>
80.6

>  <TPSA>
29.54

>  <logP>
2.46

$$$$

  Mrv1722703221715202D          

 26 29  0  0  0  0            999 V2000
    0.0000    0.0000    0.0000 S   0  0  0  0  0  0  0  0  0  0  0  0
   -0.8033    0.2487    0.0000 O   0  0  0  0  0  0  0  0  0  0  0  0
    0.1785   -0.8033    0.0000 C   0  0  0  0  0  0  0  0  0  0  0  0
    0.5993    0.5738    0.0000 C   0  0  0  0  0  0  0  0  0  0  0  0
    0.9691   -1.0392    0.0000 C   0  0  0  0  0  0  0  0  0  0  0  0
   -0.4335   -1.3643    0.0000 C   0  0  0  0  0  0  0  0  0  0  0  0
    1.1476   -1.8425    0.0000 C   0  0  0  0  0  0  0  0  0  0  0  0
   -0.2550   -2.1677    0.0000 C   0  0  0  0  0  0  0  0  0  0  0  0
    1.9381   -2.0784    0.0000 N   0  0  0  0  0  0  0  0  0  0  0  0
    0.5356   -2.4035    0.0000 C   0  0  0  0  0  0  0  0  0  0  0  0
    2.1166   -2.8817    0.0000 C   0  0  0  0  0  0  0  0  0  0  0  0
    2.5374   -1.5046    0.0000 C   0  0  0  0  0  0  0  0  0  0  0  0
    0.7141   -3.2068    0.0000 S   0  0  0  0  0  0  0  0  0  0  0  0
    1.5046   -3.4427    0.0000 C   0  0  0  0  0  0  0  0  0  0  0  0
    2.9072   -3.1176    0.0000 C   0  0  0  0  0  0  0  0  0  0  0  0
    3.3280   -1.7405    0.0000 C   0  0  0  0  0  0  0  0  0  0  0  0
    1.6831   -4.2461    0.0000 C   0  0  0  0  0  0  0  0  0  0  0  0
    3.0857   -3.9209    0.0000 C   0  0  0  0  0  0  0  0  0  0  0  0
    3.9273   -1.1667    0.0000 C   0  0  0  0  0  0  0  0  0  0  0  0
    2.4737   -4.4819    0.0000 C   0  0  0  0  0  0  0  0  0  0  0  0
    4.7178   -1.4026    0.0000 N   0  0  0  0  0  0  0  0  0  0  0  0
    3.7360   -0.3507    0.0000 C   0  0  0  0  0  0  0  0  0  0  0  0
    5.3171   -0.8288    0.0000 C   0  0  0  0  0  0  0  0  0  0  0  0
    4.8963   -2.2059    0.0000 C   0  0  0  0  0  0  0  0  0  0  0  0
    4.3353    0.2231    0.0000 C   0  0  0  0  0  0  0  0  0  0  0  0
    5.1258   -0.0127    0.0000 C   0  0  0  0  0  0  0  0  0  0  0  0
  1  2  2  0  0  0  0
  1  3  1  0  0  0  0
  1  4  1  0  0  0  0
  3  5  2  0  0  0  0
  3  6  1  0  0  0  0
  5  7  1  0  0  0  0
  6  8  2  0  0  0  0
  7  9  1  0  0  0  0
  7 10  2  0  0  0  0
  9 11  1  0  0  0  0
  9 12  1  0  0  0  0
 10 13  1  0  0  0  0
 11 14  2  0  0  0  0
 11 15  1  0  0  0  0
 12 16  1  0  0  0  0
 14 17  1  0  0  0  0
 15 18  2  0  0  0  0
 16 19  1  0  0  0  0
 17 20  2  0  0  0  0
 19 21  1  0  0  0  0
 19 22  1  0  0  0  0
 21 23  1  0  0  0  0
 21 24  1  0  0  0  0
 22 25  1  0  0  0  0
 23 26  1  0  0  0  0
  8 10  1  0  0  0  0
 13 14  1  0  0  0  0
 18 20  1  0  0  0  0
 25 26  1  0  0  0  0
M  END

>  <name>
Mesoridazine

>  <ROTATABLE_BONDCOUNT>
4

>  <HBDScore>
1.0

>  <dipole>
4.20

>  <logD>
2.72

>  <MPOScore>
4.247714285714286

>  <logDScore>
0.6399999999999999

>  <MW>
386.57

>  <charge_dist(7.4)>
0.86

>  <CNS>
TRUE

>  <ArRings>
2

>  <HBD>
0

>  <BALABAN_INDEX>
1.26

>  <bpKa>
8.19

>  <TPSAScore>
0.17750000000000005

>  <MWScore>
0.8102142857142858

>  <bpKaScore>
0.9050000000000002

>  <logPScore>
0.7150000000000001

>  <MPO_area>
49.44

>  <TPSA>
23.55

>  <logP>
3.57

$$$$

  Mrv1722703221715202D          

 30 34  0  0  0  0            999 V2000
    0.0000    0.0000    0.0000 O   0  0  0  0  0  0  0  0  0  0  0  0
   -0.0261    0.8365    0.0000 C   0  0  0  0  0  0  0  0  0  0  0  0
   -0.7645    1.2416    0.0000 O   0  0  0  0  0  0  0  0  0  0  0  0
    0.6731    1.2743    0.0000 N   0  0  0  0  0  0  0  0  0  0  0  0
   -1.4768    0.8168    0.0000 C   0  0  0  0  0  0  0  0  0  0  0  0
    1.3985    0.8822    0.0000 C   0  0  0  0  0  0  0  0  0  0  0  0
   -2.2153    1.2220    0.0000 C   0  0  0  0  0  0  0  0  0  0  0  0
    2.0976    1.3200    0.0000 C   0  0  2  0  0  0  0  0  0  0  0  0
   -2.2414    2.0585    0.0000 C   0  0  0  0  0  0  0  0  0  0  0  0
   -2.9275    0.7972    0.0000 C   0  0  0  0  0  0  0  0  0  0  0  0
    2.0715    2.1565    0.0000 C   0  0  0  0  0  0  0  0  0  0  0  0
    2.8230    0.9279    0.0000 C   0  0  0  0  0  0  0  0  0  0  0  0
   -2.9798    2.4636    0.0000 C   0  0  0  0  0  0  0  0  0  0  0  0
   -3.6660    1.2024    0.0000 C   0  0  0  0  0  0  0  0  0  0  0  0
    2.7708    2.5943    0.0000 N   0  0  0  0  0  0  0  0  0  0  0  0
    3.5222    1.3658    0.0000 C   0  0  2  0  0  0  0  0  0  0  0  0
   -3.6922    2.0388    0.0000 C   0  0  0  0  0  0  0  0  0  0  0  0
    3.4961    2.2022    0.0000 C   0  0  2  0  0  0  0  0  0  0  0  0
    2.7446    3.4308    0.0000 C   0  0  0  0  0  0  0  0  0  0  0  0
    4.2476    0.9737    0.0000 C   0  0  0  0  0  0  0  0  0  0  0  0
    4.1953    2.6400    0.0000 C   0  0  0  0  0  0  0  0  0  0  0  0
    4.9468    1.4115    0.0000 C   0  0  0  0  0  0  0  0  0  0  0  0
    4.2607    0.1503    0.0000 C   0  0  0  0  0  0  0  0  0  0  0  0
    4.9207    2.2479    0.0000 C   0  0  0  0  0  0  0  0  0  0  0  0
    5.6722    1.0194    0.0000 C   0  0  0  0  0  0  0  0  0  0  0  0
    4.9860   -0.2418    0.0000 C   0  0  0  0  0  0  0  0  0  0  0  0
    5.7245    2.4440    0.0000 C   0  0  0  0  0  0  0  0  0  0  0  0
    6.1557    1.7382    0.0000 N   0  0  0  0  0  0  0  0  0  0  0  0
    5.6852    0.1961    0.0000 C   0  0  0  0  0  0  0  0  0  0  0  0
    6.9791    1.6795    0.0000 C   0  0  0  0  0  0  0  0  0  0  0  0
  1  2  2  0  0  0  0
  2  3  1  0  0  0  0
  2  4  1  0  0  0  0
  3  5  1  0  0  0  0
  4  6  1  0  0  0  0
  5  7  1  0  0  0  0
  8  6  1  6  0  0  0
  7  9  2  0  0  0  0
  7 10  1  0  0  0  0
  8 11  1  0  0  0  0
  8 12  1  0  0  0  0
  9 13  1  0  0  0  0
 10 14  2  0  0  0  0
 11 15  1  0  0  0  0
 16 12  1  6  0  0  0
 13 17  2  0  0  0  0
 18 15  1  1  0  0  0
 15 19  1  0  0  0  0
 16 20  1  0  0  0  0
 18 21  1  0  0  0  0
 20 22  2  0  0  0  0
 20 23  1  0  0  0  0
 21 24  1  0  0  0  0
 22 25  1  0  0  0  0
 23 26  2  0  0  0  0
 24 27  2  0  0  0  0
 25 28  1  0  0  0  0
 25 29  2  0  0  0  0
 28 30  1  0  0  0  0
 14 17  1  0  0  0  0
 16 18  1  0  0  0  0
 22 24  1  0  0  0  0
 26 29  1  0  0  0  0
 27 28  1  0  0  0  0
M  END

>  <name>
Metergoline

>  <ROTATABLE_BONDCOUNT>
5

>  <HBDScore>
0.8333333333333334

>  <dipole>
7.44

>  <logD>
3.11

>  <MPOScore>
4.362433333333334

>  <logDScore>
0.44500000000000006

>  <MW>
403.526

>  <charge_dist(7.4)>
0.87

>  <CNS>
TRUE

>  <ArRings>
3

>  <HBD>
1

>  <BALABAN_INDEX>
1.01

>  <bpKa>
8.22

>  <TPSAScore>
1.0

>  <MWScore>
0.6890999999999999

>  <bpKaScore>
0.8899999999999997

>  <logPScore>
0.5049999999999999

>  <MPO_area>
53.73

>  <TPSA>
46.50

>  <logP>
3.99

$$$$

  Mrv1722703221715202D          

  9  8  0  0  0  0            999 V2000
    0.0000    0.0000    0.0000 N   0  0  0  0  0  0  0  0  0  0  0  0
   -0.1481   -0.8114    0.0000 C   0  0  0  0  0  0  0  0  0  0  0  0
   -0.9337   -1.0883    0.0000 N   0  0  0  0  0  0  0  0  0  0  0  0
    0.4830   -1.3394    0.0000 N   0  0  0  0  0  0  0  0  0  0  0  0
   -1.5776   -0.5473    0.0000 C   0  0  0  0  0  0  0  0  0  0  0  0
   -1.0818   -1.8996    0.0000 C   0  0  0  0  0  0  0  0  0  0  0  0
    1.2557   -1.0496    0.0000 C   0  0  0  0  0  0  0  0  0  0  0  0
    1.3909   -0.2254    0.0000 N   0  0  0  0  0  0  0  0  0  0  0  0
    1.8867   -1.5776    0.0000 N   0  0  0  0  0  0  0  0  0  0  0  0
  1  2  2  0  0  0  0
  2  3  1  0  0  0  0
  2  4  1  0  0  0  0
  3  5  1  0  0  0  0
  3  6  1  0  0  0  0
  4  7  1  0  0  0  0
  7  8  2  0  0  0  0
  7  9  1  0  0  0  0
M  END

>  <name>
Metformin

>  <ROTATABLE_BONDCOUNT>
0

>  <HBDScore>
0.0

>  <dipole>
2.61

>  <logD>
-5.62

>  <MPOScore>
4.0

>  <logDScore>
1.0

>  <MW>
129.167

>  <charge_dist(7.4)>
2.00

>  <CNS>
TRUE

>  <ArRings>
0

>  <HBD>
4

>  <BALABAN_INDEX>
3.38

>  <bpKa>
12.33

>  <TPSAScore>
1.0

>  <MWScore>
1.0

>  <bpKaScore>
0.0

>  <logPScore>
1.0

>  <MPO_area>
50.0

>  <TPSA>
88.99

>  <logP>
-0.92

$$$$

  Mrv1722703221715202D          

 11 11  0  0  0  0            999 V2000
    0.0000    0.0000    0.0000 N   0  0  0  0  0  0  0  0  0  0  0  0
   -0.0259   -0.8176    0.0000 C   0  0  2  0  0  0  0  0  0  0  0  0
   -0.7073    0.4348    0.0000 C   0  0  0  0  0  0  0  0  0  0  0  0
    0.6684   -1.2394    0.0000 C   0  0  0  0  0  0  0  0  0  0  0  0
   -0.7592   -1.2069    0.0000 C   0  0  0  0  0  0  0  0  0  0  0  0
    1.3886   -0.8371    0.0000 C   0  0  0  0  0  0  0  0  0  0  0  0
    1.4016   -0.0065    0.0000 C   0  0  0  0  0  0  0  0  0  0  0  0
    2.0830   -1.2588    0.0000 C   0  0  0  0  0  0  0  0  0  0  0  0
    2.1219    0.3958    0.0000 C   0  0  0  0  0  0  0  0  0  0  0  0
    2.8032   -0.8565    0.0000 C   0  0  0  0  0  0  0  0  0  0  0  0
    2.8162   -0.0259    0.0000 C   0  0  0  0  0  0  0  0  0  0  0  0
  2  1  1  6  0  0  0
  1  3  1  0  0  0  0
  2  4  1  0  0  0  0
  2  5  1  0  0  0  0
  4  6  1  0  0  0  0
  6  7  2  0  0  0  0
  6  8  1  0  0  0  0
  7  9  1  0  0  0  0
  8 10  2  0  0  0  0
  9 11  2  0  0  0  0
 10 11  1  0  0  0  0
M  END

>  <name>
Methamphetamine

>  <ROTATABLE_BONDCOUNT>
3

>  <HBDScore>
0.8333333333333334

>  <dipole>
0.69

>  <logD>
-0.44

>  <MPOScore>
3.8333333333333335

>  <logDScore>
1.0

>  <MW>
149.237

>  <charge_dist(7.4)>
1.00

>  <CNS>
TRUE

>  <ArRings>
1

>  <HBD>
1

>  <BALABAN_INDEX>
1.94

>  <bpKa>
10.21

>  <TPSAScore>
0.0

>  <MWScore>
1.0

>  <bpKaScore>
0.0

>  <logPScore>
1.0

>  <MPO_area>
47.22

>  <TPSA>
12.03

>  <logP>
2.24

$$$$

  Mrv1722703221715202D          

 14 14  0  0  0  0            999 V2000
    0.0000    0.0000    0.0000 O   0  0  0  0  0  0  0  0  0  0  0  0
    0.8113   -0.1417    0.0000 C   0  0  0  0  0  0  0  0  0  0  0  0
    1.0881   -0.9143    0.0000 N   0  0  0  0  0  0  0  0  0  0  0  0
    1.3392    0.5022    0.0000 N   0  0  0  0  0  0  0  0  0  0  0  0
    1.8994   -1.0559    0.0000 C   0  0  0  0  0  0  0  0  0  0  0  0
    0.5473   -1.5453    0.0000 C   0  0  0  0  0  0  0  0  0  0  0  0
    2.1505    0.3605    0.0000 C   0  0  0  0  0  0  0  0  0  0  0  0
    2.1763   -1.8286    0.0000 O   0  0  0  0  0  0  0  0  0  0  0  0
    2.4274   -0.4121    0.0000 C   0  0  0  0  0  0  0  0  0  0  0  0
    2.6785    1.0044    0.0000 O   0  0  0  0  0  0  0  0  0  0  0  0
    3.1421    0.0064    0.0000 C   0  0  0  0  0  0  0  0  0  0  0  0
    2.9554   -1.0430    0.0000 C   0  0  0  0  0  0  0  0  0  0  0  0
    3.8568   -0.4056    0.0000 C   0  0  0  0  0  0  0  0  0  0  0  0
    2.6656   -1.8157    0.0000 C   0  0  0  0  0  0  0  0  0  0  0  0
  1  2  2  0  0  0  0
  2  3  1  0  0  0  0
  2  4  1  0  0  0  0
  3  5  1  0  0  0  0
  3  6  1  0  0  0  0
  4  7  1  0  0  0  0
  5  8  2  0  0  0  0
  5  9  1  0  0  0  0
  7 10  2  0  0  0  0
  9 11  1  0  0  0  0
  9 12  1  0  0  0  0
 11 13  1  0  0  0  0
 12 14  1  0  0  0  0
  7  9  1  0  0  0  0
M  END

>  <name>
Metharbital

>  <ROTATABLE_BONDCOUNT>
2

>  <HBDScore>
0.8333333333333334

>  <dipole>
2.14

>  <logD>
0.78

>  <MPOScore>
5.833333333333333

>  <logDScore>
1.0

>  <MW>
198.222

>  <charge_dist(7.4)>
-0.31

>  <CNS>
TRUE

>  <ArRings>
0

>  <HBD>
1

>  <BALABAN_INDEX>
2.93

>  <bpKa>
0.0

>  <TPSAScore>
1.0

>  <MWScore>
1.0

>  <bpKaScore>
1.0

>  <logPScore>
1.0

>  <MPO_area>
94.44

>  <TPSA>
66.48

>  <logP>
0.94

$$$$

  Mrv1722703221715202D          

 21 24  0  0  0  0            999 V2000
    0.0000    0.0000    0.0000 S   0  0  0  0  0  0  0  0  0  0  0  0
    0.8165   -0.0648    0.0000 C   0  0  0  0  0  0  0  0  0  0  0  0
   -0.3564    0.7582    0.0000 C   0  0  0  0  0  0  0  0  0  0  0  0
    1.2831    0.6156    0.0000 C   0  0  0  0  0  0  0  0  0  0  0  0
    1.1599   -0.8100    0.0000 C   0  0  0  0  0  0  0  0  0  0  0  0
    0.1102    1.4386    0.0000 C   0  0  0  0  0  0  0  0  0  0  0  0
   -1.1859    0.8359    0.0000 C   0  0  0  0  0  0  0  0  0  0  0  0
    0.9267    1.3738    0.0000 N   0  0  0  0  0  0  0  0  0  0  0  0
    2.0996    0.5508    0.0000 C   0  0  0  0  0  0  0  0  0  0  0  0
    1.9765   -0.8748    0.0000 C   0  0  0  0  0  0  0  0  0  0  0  0
   -0.2463    2.1968    0.0000 C   0  0  0  0  0  0  0  0  0  0  0  0
   -1.5423    1.5941    0.0000 C   0  0  0  0  0  0  0  0  0  0  0  0
    1.3932    2.0542    0.0000 C   0  0  0  0  0  0  0  0  0  0  0  0
    2.4431   -0.1944    0.0000 C   0  0  0  0  0  0  0  0  0  0  0  0
   -1.0757    2.2746    0.0000 C   0  0  0  0  0  0  0  0  0  0  0  0
    2.2098    1.9894    0.0000 C   0  0  2  0  0  0  0  0  0  0  0  0
    2.6245    1.2896    0.0000 C   0  0  0  0  0  0  0  0  0  0  0  0
    2.7476    2.6180    0.0000 C   0  0  0  0  0  0  0  0  0  0  0  0
    3.4216    1.4775    0.0000 N   0  0  0  0  0  0  0  0  0  0  0  0
    3.4993    2.3005    0.0000 C   0  0  0  0  0  0  0  0  0  0  0  0
    4.0371    0.9396    0.0000 C   0  0  0  0  0  0  0  0  0  0  0  0
  1  2  1  0  0  0  0
  1  3  1  0  0  0  0
  2  4  2  0  0  0  0
  2  5  1  0  0  0  0
  3  6  2  0  0  0  0
  3  7  1  0  0  0  0
  4  8  1  0  0  0  0
  4  9  1  0  0  0  0
  5 10  2  0  0  0  0
  6 11  1  0  0  0  0
  7 12  2  0  0  0  0
  8 13  1  0  0  0  0
  9 14  2  0  0  0  0
 11 15  2  0  0  0  0
 16 13  1  1  0  0  0
 16 17  1  0  0  0  0
 16 18  1  0  0  0  0
 17 19  1  0  0  0  0
 18 20  1  0  0  0  0
 19 21  1  0  0  0  0
  6  8  1  0  0  0  0
 10 14  1  0  0  0  0
 12 15  1  0  0  0  0
 19 20  1  0  0  0  0
M  END

>  <name>
Methdilazine

>  <ROTATABLE_BONDCOUNT>
2

>  <HBDScore>
1.0

>  <dipole>
4.79

>  <logD>
2.52

>  <MPOScore>
3.8649999999999998

>  <logDScore>
0.74

>  <MW>
296.43

>  <charge_dist(7.4)>
0.96

>  <CNS>
TRUE

>  <ArRings>
2

>  <HBD>
0

>  <BALABAN_INDEX>
1.25

>  <bpKa>
8.81

>  <TPSAScore>
0.0

>  <MWScore>
1.0

>  <bpKaScore>
0.5949999999999998

>  <logPScore>
0.53

>  <MPO_area>
41.59

>  <TPSA>
6.48

>  <logP>
3.94

$$$$

  Mrv1722703221715202D          

 22 25  0  0  0  0            999 V2000
    0.0000    0.0000    0.0000 S   0  0  0  0  0  0  0  0  0  0  0  0
   -0.8263    0.0968    0.0000 C   0  0  0  0  0  0  0  0  0  0  0  0
    0.3227   -0.7488    0.0000 C   0  0  0  0  0  0  0  0  0  0  0  0
   -1.3233   -0.5616    0.0000 C   0  0  0  0  0  0  0  0  0  0  0  0
   -1.1619    0.8586    0.0000 C   0  0  0  0  0  0  0  0  0  0  0  0
   -0.1743   -1.4072    0.0000 C   0  0  0  0  0  0  0  0  0  0  0  0
    1.1361   -0.8327    0.0000 C   0  0  0  0  0  0  0  0  0  0  0  0
   -2.1495   -0.4648    0.0000 C   0  0  0  0  0  0  0  0  0  0  0  0
   -1.0006   -1.3104    0.0000 C   0  0  0  0  0  0  0  0  0  0  0  0
   -1.9882    0.9553    0.0000 C   0  0  0  0  0  0  0  0  0  0  0  0
    0.1485   -2.1560    0.0000 C   0  0  0  0  0  0  0  0  0  0  0  0
    1.4589   -1.5815    0.0000 C   0  0  0  0  0  0  0  0  0  0  0  0
   -2.4852    0.2969    0.0000 C   0  0  0  0  0  0  0  0  0  0  0  0
   -1.4976   -1.9688    0.0000 C   0  0  0  0  0  0  0  0  0  0  0  0
    0.9618   -2.2399    0.0000 C   0  0  0  0  0  0  0  0  0  0  0  0
   -2.3238   -1.8720    0.0000 C   0  0  2  0  0  0  0  0  0  0  0  0
   -2.6595   -1.1103    0.0000 C   0  0  0  0  0  0  0  0  0  0  0  0
   -2.8209   -2.5304    0.0000 C   0  0  0  0  0  0  0  0  0  0  0  0
   -3.4857   -1.0135    0.0000 N   0  0  0  0  0  0  0  0  0  0  0  0
   -3.6471   -2.4335    0.0000 C   0  0  0  0  0  0  0  0  0  0  0  0
   -3.9828   -1.6719    0.0000 C   0  0  0  0  0  0  0  0  0  0  0  0
   -3.8214   -0.2517    0.0000 C   0  0  0  0  0  0  0  0  0  0  0  0
  1  2  1  0  0  0  0
  1  3  1  0  0  0  0
  2  4  2  0  0  0  0
  2  5  1  0  0  0  0
  3  6  2  0  0  0  0
  3  7  1  0  0  0  0
  4  8  1  0  0  0  0
  4  9  1  0  0  0  0
  5 10  2  0  0  0  0
  6 11  1  0  0  0  0
  7 12  2  0  0  0  0
  8 13  2  0  0  0  0
  9 14  1  0  0  0  0
 11 15  2  0  0  0  0
 16 14  1  1  0  0  0
 16 17  1  0  0  0  0
 16 18  1  0  0  0  0
 17 19  1  0  0  0  0
 18 20  1  0  0  0  0
 19 21  1  0  0  0  0
 19 22  1  0  0  0  0
  6  9  1  0  0  0  0
 10 13  1  0  0  0  0
 12 15  1  0  0  0  0
 20 21  1  0  0  0  0
M  END

>  <name>
Methixene

>  <ROTATABLE_BONDCOUNT>
2

>  <HBDScore>
1.0

>  <dipole>
7.30

>  <logD>
3.13

>  <MPOScore>
2.765

>  <logDScore>
0.43500000000000005

>  <MW>
309.47

>  <charge_dist(7.4)>
0.99

>  <CNS>
TRUE

>  <ArRings>
2

>  <HBD>
0

>  <BALABAN_INDEX>
1.49

>  <bpKa>
9.34

>  <TPSAScore>
0.0

>  <MWScore>
1.0

>  <bpKaScore>
0.33000000000000007

>  <logPScore>
0.0

>  <MPO_area>
26.31

>  <TPSA>
3.24

>  <logP>
5.06

$$$$

  Mrv1722703221715202D          

 17 17  0  0  0  0            999 V2000
    0.0000    0.0000    0.0000 O   0  0  0  0  0  0  0  0  0  0  0  0
   -0.0260   -0.8176    0.0000 C   0  0  0  0  0  0  0  0  0  0  0  0
    0.6684   -1.2394    0.0000 O   0  0  0  0  0  0  0  0  0  0  0  0
   -0.7592   -1.2069    0.0000 N   0  0  0  0  0  0  0  0  0  0  0  0
    1.3886   -0.8371    0.0000 C   0  0  0  0  0  0  0  0  0  0  0  0
    2.0829   -1.2589    0.0000 C   0  0  2  0  0  0  0  0  0  0  0  0
    2.0570   -2.0765    0.0000 O   0  0  0  0  0  0  0  0  0  0  0  0
    2.8033   -0.8566    0.0000 C   0  0  0  0  0  0  0  0  0  0  0  0
    3.4976   -1.2783    0.0000 O   0  0  0  0  0  0  0  0  0  0  0  0
    4.2178   -0.8760    0.0000 C   0  0  0  0  0  0  0  0  0  0  0  0
    4.9121   -1.2978    0.0000 C   0  0  0  0  0  0  0  0  0  0  0  0
    4.2308   -0.0454    0.0000 C   0  0  0  0  0  0  0  0  0  0  0  0
    4.8862   -2.1154    0.0000 O   0  0  0  0  0  0  0  0  0  0  0  0
    5.6324   -0.8955    0.0000 C   0  0  0  0  0  0  0  0  0  0  0  0
    4.9511    0.3569    0.0000 C   0  0  0  0  0  0  0  0  0  0  0  0
    4.1529   -2.5047    0.0000 C   0  0  0  0  0  0  0  0  0  0  0  0
    5.6454   -0.0649    0.0000 C   0  0  0  0  0  0  0  0  0  0  0  0
  1  2  2  0  0  0  0
  2  3  1  0  0  0  0
  2  4  1  0  0  0  0
  3  5  1  0  0  0  0
  5  6  1  0  0  0  0
  6  7  1  1  0  0  0
  6  8  1  0  0  0  0
  8  9  1  0  0  0  0
  9 10  1  0  0  0  0
 10 11  2  0  0  0  0
 10 12  1  0  0  0  0
 11 13  1  0  0  0  0
 11 14  1  0  0  0  0
 12 15  2  0  0  0  0
 13 16  1  0  0  0  0
 14 17  2  0  0  0  0
 15 17  1  0  0  0  0
M  END

>  <name>
Methocarbamol

>  <ROTATABLE_BONDCOUNT>
7

>  <HBDScore>
0.5

>  <dipole>
3.33

>  <logD>
0.45

>  <MPOScore>
5.466333333333333

>  <logDScore>
1.0

>  <MW>
241.243

>  <charge_dist(7.4)>
-0.00

>  <CNS>
TRUE

>  <ArRings>
1

>  <HBD>
2

>  <BALABAN_INDEX>
2.06

>  <bpKa>
-3.4

>  <TPSAScore>
0.9663333333333332

>  <MWScore>
1.0

>  <bpKaScore>
1.0

>  <logPScore>
1.0

>  <MPO_area>
82.49

>  <TPSA>
91.01

>  <logP>
0.45

$$$$

  Mrv1722703221715202D          

 25 28  0  0  0  0            999 V2000
    0.0000    0.0000    0.0000 O   0  0  0  0  0  0  0  0  0  0  0  0
    0.0816    0.8301    0.0000 C   0  0  0  0  0  0  0  0  0  0  0  0
   -0.5988    1.3269    0.0000 N   0  0  0  0  0  0  0  0  0  0  0  0
    0.8301    1.1772    0.0000 C   0  0  1  0  0  0  0  0  0  0  0  0
   -1.3609    0.9935    0.0000 C   0  0  1  0  0  0  0  0  0  0  0  0
    1.4970    0.6940    0.0000 C   0  0  0  0  0  0  0  0  0  0  0  0
    0.9118    2.0073    0.0000 C   0  0  0  0  0  0  0  0  0  0  0  0
   -1.4562    0.1769    0.0000 C   0  0  0  0  0  0  0  0  0  0  0  0
   -2.0413    1.4902    0.0000 C   0  0  0  0  0  0  0  0  0  0  0  0
    2.2454    1.0411    0.0000 C   0  0  0  0  0  0  0  0  0  0  0  0
    1.6603    2.3543    0.0000 N   0  0  0  0  0  0  0  0  0  0  0  0
   -2.2182   -0.1565    0.0000 O   0  0  0  0  0  0  0  0  0  0  0  0
   -2.8035    1.1568    0.0000 C   0  0  0  0  0  0  0  0  0  0  0  0
    2.9123    0.5579    0.0000 C   0  0  0  0  0  0  0  0  0  0  0  0
    2.3271    1.8712    0.0000 C   0  0  1  0  0  0  0  0  0  0  0  0
    1.7419    3.1845    0.0000 C   0  0  0  0  0  0  0  0  0  0  0  0
    3.6608    0.9050    0.0000 C   0  0  0  0  0  0  0  0  0  0  0  0
    2.8171   -0.2586    0.0000 C   0  0  0  0  0  0  0  0  0  0  0  0
    3.0756    2.2182    0.0000 C   0  0  0  0  0  0  0  0  0  0  0  0
    4.3276    0.4218    0.0000 C   0  0  0  0  0  0  0  0  0  0  0  0
    3.7424    1.7351    0.0000 C   0  0  0  0  0  0  0  0  0  0  0  0
    3.4839   -0.7417    0.0000 C   0  0  0  0  0  0  0  0  0  0  0  0
    4.9400    0.9867    0.0000 N   0  0  0  0  0  0  0  0  0  0  0  0
    4.2324   -0.3946    0.0000 C   0  0  0  0  0  0  0  0  0  0  0  0
    4.5998    1.7419    0.0000 C   0  0  0  0  0  0  0  0  0  0  0  0
  1  2  2  0  0  0  0
  2  3  1  0  0  0  0
  4  2  1  6  0  0  0
  5  3  1  1  0  0  0
  4  6  1  0  0  0  0
  4  7  1  0  0  0  0
  5  8  1  0  0  0  0
  5  9  1  0  0  0  0
  6 10  2  0  0  0  0
  7 11  1  0  0  0  0
  8 12  1  0  0  0  0
  9 13  1  0  0  0  0
 10 14  1  0  0  0  0
 10 15  1  0  0  0  0
 11 16  1  0  0  0  0
 14 17  2  0  0  0  0
 14 18  1  0  0  0  0
 15 19  1  0  0  0  0
 17 20  1  0  0  0  0
 17 21  1  0  0  0  0
 18 22  2  0  0  0  0
 20 23  1  0  0  0  0
 20 24  2  0  0  0  0
 21 25  2  0  0  0  0
 15 11  1  1  0  0  0
 19 21  1  0  0  0  0
 22 24  1  0  0  0  0
 23 25  1  0  0  0  0
M  END

>  <name>
Methylergonovine

>  <ROTATABLE_BONDCOUNT>
4

>  <HBDScore>
0.16666666666666674

>  <dipole>
7.76

>  <logD>
0.95

>  <MPOScore>
5.166666666666667

>  <logDScore>
1.0

>  <MW>
339.439

>  <charge_dist(7.4)>
0.77

>  <CNS>
TRUE

>  <ArRings>
2

>  <HBD>
3

>  <BALABAN_INDEX>
1.32

>  <bpKa>
7.93

>  <TPSAScore>
1.0

>  <MWScore>
1.0

>  <bpKaScore>
1.0

>  <logPScore>
1.0

>  <MPO_area>
72.22

>  <TPSA>
68.36

>  <logP>
1.59

$$$$

  Mrv1722703221715202D          

 13 13  0  0  0  0            999 V2000
    0.0000    0.0000    0.0000 O   0  0  0  0  0  0  0  0  0  0  0  0
   -0.7703   -0.3264    0.0000 C   0  0  0  0  0  0  0  0  0  0  0  0
   -1.4428    0.1763    0.0000 N   0  0  0  0  0  0  0  0  0  0  0  0
   -0.8683   -1.1425    0.0000 C   0  0  0  0  0  0  0  0  0  0  0  0
   -2.2131   -0.1502    0.0000 C   0  0  0  0  0  0  0  0  0  0  0  0
   -1.6386   -1.4689    0.0000 C   0  0  0  0  0  0  0  0  0  0  0  0
   -0.6789   -1.9455    0.0000 C   0  0  0  0  0  0  0  0  0  0  0  0
   -0.0457   -1.0837    0.0000 C   0  0  0  0  0  0  0  0  0  0  0  0
   -2.3110   -0.9662    0.0000 C   0  0  1  0  0  0  0  0  0  0  0  0
   -1.7365   -2.2850    0.0000 O   0  0  0  0  0  0  0  0  0  0  0  0
   -1.2861   -2.5134    0.0000 C   0  0  0  0  0  0  0  0  0  0  0  0
    0.4048   -1.7692    0.0000 C   0  0  0  0  0  0  0  0  0  0  0  0
   -3.0814   -1.2926    0.0000 C   0  0  0  0  0  0  0  0  0  0  0  0
  1  2  2  0  0  0  0
  2  3  1  0  0  0  0
  2  4  1  0  0  0  0
  3  5  1  0  0  0  0
  4  6  1  0  0  0  0
  4  7  1  0  0  0  0
  4  8  1  0  0  0  0
  5  9  1  0  0  0  0
  6 10  2  0  0  0  0
  7 11  1  0  0  0  0
  8 12  1  0  0  0  0
  9 13  1  1  0  0  0
  6  9  1  0  0  0  0
M  END

>  <name>
Methyprylon

>  <ROTATABLE_BONDCOUNT>
2

>  <HBDScore>
0.8333333333333334

>  <dipole>
4.25

>  <logD>
1.88

>  <MPOScore>
5.833333333333333

>  <logDScore>
1.0

>  <MW>
183.251

>  <charge_dist(7.4)>
-0.00

>  <CNS>
TRUE

>  <ArRings>
0

>  <HBD>
1

>  <BALABAN_INDEX>
2.64

>  <bpKa>
-3.15

>  <TPSAScore>
1.0

>  <MWScore>
1.0

>  <bpKaScore>
1.0

>  <logPScore>
1.0

>  <MPO_area>
94.44

>  <TPSA>
46.17

>  <logP>
1.88

$$$$

  Mrv1722703221715202D          

 20 20  0  0  0  0            999 V2000
    0.0000    0.0000    0.0000 Cl  0  0  0  0  0  0  0  0  0  0  0  0
   -0.6031    0.5654    0.0000 C   0  0  0  0  0  0  0  0  0  0  0  0
   -0.4272    1.3695    0.0000 C   0  0  0  0  0  0  0  0  0  0  0  0
   -1.3947    0.3330    0.0000 C   0  0  0  0  0  0  0  0  0  0  0  0
    0.3518    1.6146    0.0000 N   0  0  0  0  0  0  0  0  0  0  0  0
   -1.0303    1.9349    0.0000 C   0  0  0  0  0  0  0  0  0  0  0  0
   -1.9978    0.8984    0.0000 C   0  0  0  0  0  0  0  0  0  0  0  0
   -1.8219    1.7025    0.0000 C   0  0  0  0  0  0  0  0  0  0  0  0
   -2.7893    0.6659    0.0000 C   0  0  0  0  0  0  0  0  0  0  0  0
   -2.4250    2.2679    0.0000 O   0  0  0  0  0  0  0  0  0  0  0  0
   -2.9778   -0.1256    0.0000 O   0  0  0  0  0  0  0  0  0  0  0  0
   -3.3924    1.2313    0.0000 N   0  0  0  0  0  0  0  0  0  0  0  0
   -2.2491    3.0720    0.0000 C   0  0  0  0  0  0  0  0  0  0  0  0
   -4.1840    0.9989    0.0000 C   0  0  0  0  0  0  0  0  0  0  0  0
   -4.7870    1.5643    0.0000 C   0  0  0  0  0  0  0  0  0  0  0  0
   -5.5786    1.3318    0.0000 N   0  0  0  0  0  0  0  0  0  0  0  0
   -6.1817    1.8972    0.0000 C   0  0  0  0  0  0  0  0  0  0  0  0
   -5.7671    0.5403    0.0000 C   0  0  0  0  0  0  0  0  0  0  0  0
   -6.9733    1.6648    0.0000 C   0  0  0  0  0  0  0  0  0  0  0  0
   -6.5587    0.3078    0.0000 C   0  0  0  0  0  0  0  0  0  0  0  0
  1  2  1  0  0  0  0
  2  3  2  0  0  0  0
  2  4  1  0  0  0  0
  3  5  1  0  0  0  0
  3  6  1  0  0  0  0
  4  7  2  0  0  0  0
  6  8  2  0  0  0  0
  7  9  1  0  0  0  0
  8 10  1  0  0  0  0
  9 11  2  0  0  0  0
  9 12  1  0  0  0  0
 10 13  1  0  0  0  0
 12 14  1  0  0  0  0
 14 15  1  0  0  0  0
 15 16  1  0  0  0  0
 16 17  1  0  0  0  0
 16 18  1  0  0  0  0
 17 19  1  0  0  0  0
 18 20  1  0  0  0  0
  7  8  1  0  0  0  0
M  END

>  <name>
Metoclopramide

>  <ROTATABLE_BONDCOUNT>
7

>  <HBDScore>
0.5

>  <dipole>
10.63

>  <logD>
-0.25

>  <MPOScore>
4.98

>  <logDScore>
1.0

>  <MW>
299.80

>  <charge_dist(7.4)>
0.98

>  <CNS>
TRUE

>  <ArRings>
1

>  <HBD>
2

>  <BALABAN_INDEX>
2.42

>  <bpKa>
9.04

>  <TPSAScore>
1.0

>  <MWScore>
1.0

>  <bpKaScore>
0.4800000000000004

>  <logPScore>
1.0

>  <MPO_area>
70.33

>  <TPSA>
67.59

>  <logP>
1.40

$$$$

  Mrv1722703221715202D          

 19 19  0  0  0  0            999 V2000
    0.0000    0.0000    0.0000 O   0  0  0  0  0  0  0  0  0  0  0  0
    0.7673    0.3030    0.0000 C   0  0  0  0  0  0  0  0  0  0  0  0
   -0.6513    0.5288    0.0000 C   0  0  0  0  0  0  0  0  0  0  0  0
    0.8898    1.1284    0.0000 C   0  0  0  0  0  0  0  0  0  0  0  0
    1.4056   -0.2128    0.0000 C   0  0  0  0  0  0  0  0  0  0  0  0
   -1.4315    0.2386    0.0000 C   0  0  1  0  0  0  0  0  0  0  0  0
    1.6571    1.4315    0.0000 C   0  0  0  0  0  0  0  0  0  0  0  0
    2.1730    0.0903    0.0000 C   0  0  0  0  0  0  0  0  0  0  0  0
   -1.5668   -0.5739    0.0000 O   0  0  0  0  0  0  0  0  0  0  0  0
   -2.0827    0.7673    0.0000 C   0  0  0  0  0  0  0  0  0  0  0  0
    2.2955    0.9156    0.0000 C   0  0  0  0  0  0  0  0  0  0  0  0
   -2.8629    0.4772    0.0000 N   0  0  0  0  0  0  0  0  0  0  0  0
    3.0628    1.2187    0.0000 C   0  0  0  0  0  0  0  0  0  0  0  0
   -3.5142    1.0059    0.0000 C   0  0  0  0  0  0  0  0  0  0  0  0
    3.7012    0.7028    0.0000 C   0  0  0  0  0  0  0  0  0  0  0  0
   -4.2944    0.7158    0.0000 C   0  0  0  0  0  0  0  0  0  0  0  0
   -3.3917    1.8312    0.0000 C   0  0  0  0  0  0  0  0  0  0  0  0
    4.4685    1.0059    0.0000 O   0  0  0  0  0  0  0  0  0  0  0  0
    5.1068    0.4900    0.0000 C   0  0  0  0  0  0  0  0  0  0  0  0
  1  2  1  0  0  0  0
  1  3  1  0  0  0  0
  2  4  2  0  0  0  0
  2  5  1  0  0  0  0
  3  6  1  0  0  0  0
  4  7  1  0  0  0  0
  5  8  2  0  0  0  0
  6  9  1  1  0  0  0
  6 10  1  0  0  0  0
  7 11  2  0  0  0  0
 10 12  1  0  0  0  0
 11 13  1  0  0  0  0
 12 14  1  0  0  0  0
 13 15  1  0  0  0  0
 14 16  1  0  0  0  0
 14 17  1  0  0  0  0
 15 18  1  0  0  0  0
 18 19  1  0  0  0  0
  8 11  1  0  0  0  0
M  END

>  <name>
Metoprolol

>  <ROTATABLE_BONDCOUNT>
9

>  <HBDScore>
0.5

>  <dipole>
3.70

>  <logD>
-0.47

>  <MPOScore>
4.665

>  <logDScore>
1.0

>  <MW>
267.369

>  <charge_dist(7.4)>
0.99

>  <CNS>
TRUE

>  <ArRings>
1

>  <HBD>
2

>  <BALABAN_INDEX>
1.94

>  <bpKa>
9.67

>  <TPSAScore>
1.0

>  <MWScore>
1.0

>  <bpKaScore>
0.16500000000000004

>  <logPScore>
1.0

>  <MPO_area>
62.46

>  <TPSA>
50.72

>  <logP>
1.76

$$$$

  Mrv1722703221715202D          

 17 18  0  0  0  0            999 V2000
    0.0000    0.0000    0.0000 O   0  0  0  0  0  0  0  0  0  0  0  0
   -0.1090    0.8206    0.0000 C   0  0  0  0  0  0  0  0  0  0  0  0
    0.5385    1.3205    0.0000 C   0  0  0  0  0  0  0  0  0  0  0  0
   -0.8718    1.1475    0.0000 C   0  0  0  0  0  0  0  0  0  0  0  0
    0.4295    2.1411    0.0000 C   0  0  0  0  0  0  0  0  0  0  0  0
    1.2885    1.0064    0.0000 C   0  0  0  0  0  0  0  0  0  0  0  0
   -1.6347    1.4744    0.0000 C   0  0  0  0  0  0  0  0  0  0  0  0
   -1.1988    0.3974    0.0000 C   0  0  0  0  0  0  0  0  0  0  0  0
   -0.5577    1.9103    0.0000 C   0  0  0  0  0  0  0  0  0  0  0  0
    1.0769    2.6411    0.0000 N   0  0  0  0  0  0  0  0  0  0  0  0
    1.9360    1.5065    0.0000 C   0  0  0  0  0  0  0  0  0  0  0  0
   -2.2950    0.9872    0.0000 C   0  0  0  0  0  0  0  0  0  0  0  0
   -1.7437    2.2950    0.0000 C   0  0  0  0  0  0  0  0  0  0  0  0
    1.8270    2.3270    0.0000 C   0  0  0  0  0  0  0  0  0  0  0  0
   -3.0578    1.3142    0.0000 N   0  0  0  0  0  0  0  0  0  0  0  0
   -2.5065    2.6219    0.0000 C   0  0  0  0  0  0  0  0  0  0  0  0
   -3.1667    2.1347    0.0000 C   0  0  0  0  0  0  0  0  0  0  0  0
  1  2  2  0  0  0  0
  2  3  1  0  0  0  0
  2  4  1  0  0  0  0
  3  5  2  0  0  0  0
  3  6  1  0  0  0  0
  4  7  1  0  0  0  0
  4  8  1  0  0  0  0
  4  9  1  0  0  0  0
  5 10  1  0  0  0  0
  6 11  2  0  0  0  0
  7 12  2  0  0  0  0
  7 13  1  0  0  0  0
 10 14  2  0  0  0  0
 12 15  1  0  0  0  0
 13 16  2  0  0  0  0
 15 17  2  0  0  0  0
 11 14  1  0  0  0  0
 16 17  1  0  0  0  0
M  END

>  <name>
Metyrapone

>  <ROTATABLE_BONDCOUNT>
3

>  <HBDScore>
1.0

>  <dipole>
5.81

>  <logD>
2.03

>  <MPOScore>
5.985

>  <logDScore>
0.9850000000000001

>  <MW>
226.279

>  <charge_dist(7.4)>
0.00

>  <CNS>
TRUE

>  <ArRings>
2

>  <HBD>
0

>  <BALABAN_INDEX>
1.96

>  <bpKa>
4.87

>  <TPSAScore>
1.0

>  <MWScore>
1.0

>  <bpKaScore>
1.0

>  <logPScore>
1.0

>  <MPO_area>
99.5

>  <TPSA>
42.85

>  <logP>
2.03

$$$$

  Mrv1722703221715202D          

 13 13  0  0  0  0            999 V2000
    0.0000    0.0000    0.0000 O   0  0  0  0  0  0  0  0  0  0  0  0
    0.7870    0.2475    0.0000 C   0  0  0  0  0  0  0  0  0  0  0  0
   -0.6092    0.5712    0.0000 C   0  0  0  0  0  0  0  0  0  0  0  0
    1.3836   -0.3110    0.0000 C   0  0  0  0  0  0  0  0  0  0  0  0
    0.9710    1.0599    0.0000 C   0  0  0  0  0  0  0  0  0  0  0  0
   -1.4089    0.3364    0.0000 C   0  0  1  0  0  0  0  0  0  0  0  0
    2.1705   -0.0635    0.0000 C   0  0  0  0  0  0  0  0  0  0  0  0
    1.1868   -1.1107    0.0000 C   0  0  0  0  0  0  0  0  0  0  0  0
    1.7580    1.3074    0.0000 C   0  0  0  0  0  0  0  0  0  0  0  0
    0.3617    1.6311    0.0000 C   0  0  0  0  0  0  0  0  0  0  0  0
   -1.6057   -0.4633    0.0000 N   0  0  0  0  0  0  0  0  0  0  0  0
   -2.0182    0.9076    0.0000 C   0  0  0  0  0  0  0  0  0  0  0  0
    2.3546    0.7489    0.0000 C   0  0  0  0  0  0  0  0  0  0  0  0
  1  2  1  0  0  0  0
  1  3  1  0  0  0  0
  2  4  2  0  0  0  0
  2  5  1  0  0  0  0
  3  6  1  0  0  0  0
  4  7  1  0  0  0  0
  4  8  1  0  0  0  0
  5  9  2  0  0  0  0
  5 10  1  0  0  0  0
  6 11  1  1  0  0  0
  6 12  1  0  0  0  0
  7 13  2  0  0  0  0
  9 13  1  0  0  0  0
M  END

>  <name>
Mexiletine

>  <ROTATABLE_BONDCOUNT>
3

>  <HBDScore>
0.8333333333333334

>  <dipole>
4.76

>  <logD>
0.39

>  <MPOScore>
4.835833333333333

>  <logDScore>
1.0

>  <MW>
179.263

>  <charge_dist(7.4)>
0.99

>  <CNS>
TRUE

>  <ArRings>
1

>  <HBD>
1

>  <BALABAN_INDEX>
2.17

>  <bpKa>
9.52

>  <TPSAScore>
0.7625000000000001

>  <MWScore>
1.0

>  <bpKaScore>
0.2400000000000002

>  <logPScore>
1.0

>  <MPO_area>
64.86

>  <TPSA>
35.25

>  <logP>
2.46

$$$$

  Mrv1722703221715202D          

 32 36  0  0  0  0            999 V2000
    0.0000    0.0000    0.0000 O   0  0  0  0  0  0  0  0  0  0  0  0
   -0.7503    0.3463    0.0000 C   0  0  0  0  0  0  0  0  0  0  0  0
   -1.4236   -0.1218    0.0000 C   0  0  0  0  0  0  0  0  0  0  0  0
   -0.8336    1.1671    0.0000 C   0  0  0  0  0  0  0  0  0  0  0  0
   -2.1738    0.2244    0.0000 C   0  0  0  0  0  0  0  0  0  0  0  0
   -1.5839    1.5133    0.0000 C   0  0  0  0  0  0  0  0  0  0  0  0
   -2.2572    1.0452    0.0000 C   0  0  0  0  0  0  0  0  0  0  0  0
   -2.8471   -0.2437    0.0000 C   0  0  0  0  0  0  0  0  0  0  0  0
   -3.0074    1.3915    0.0000 C   0  0  0  0  0  0  0  0  0  0  0  0
   -3.5974    0.1026    0.0000 C   0  0  0  0  0  0  0  0  0  0  0  0
   -3.0908    2.2123    0.0000 C   0  0  1  0  0  0  0  0  0  0  0  0
   -3.6808    0.9234    0.0000 C   0  0  1  0  0  0  0  0  0  0  0  0
   -2.4303    2.6932    0.0000 C   0  0  0  0  0  0  0  0  0  0  0  0
   -3.8410    2.5586    0.0000 C   0  0  0  0  0  0  0  0  0  0  0  0
   -4.4310    1.2697    0.0000 C   0  0  1  0  0  0  0  0  0  0  0  0
   -1.6929    2.3598    0.0000 C   0  0  0  0  0  0  0  0  0  0  0  0
   -2.5137    3.5140    0.0000 C   0  0  0  0  0  0  0  0  0  0  0  0
   -4.5144    2.0904    0.0000 C   0  0  1  0  0  0  0  0  0  0  0  0
   -5.1877    0.9555    0.0000 C   0  0  0  0  0  0  0  0  0  0  0  0
   -1.0324    2.8407    0.0000 C   0  0  0  0  0  0  0  0  0  0  0  0
   -1.8532    3.9950    0.0000 C   0  0  0  0  0  0  0  0  0  0  0  0
   -5.3159    2.2764    0.0000 C   0  0  2  0  0  0  0  0  0  0  0  0
   -4.5785    2.9113    0.0000 C   0  0  0  0  0  0  0  0  0  0  0  0
   -5.7327    1.5774    0.0000 C   0  0  0  0  0  0  0  0  0  0  0  0
   -1.1157    3.6615    0.0000 C   0  0  0  0  0  0  0  0  0  0  0  0
   -5.1556    3.0844    0.0000 O   0  0  0  0  0  0  0  0  0  0  0  0
   -6.0662    2.6227    0.0000 C   0  0  0  0  0  0  0  0  0  0  0  0
   -0.4553    4.1424    0.0000 N   0  0  0  0  0  0  0  0  0  0  0  0
   -6.8164    2.9690    0.0000 C   0  0  0  0  0  0  0  0  0  0  0  0
    0.2821    3.8090    0.0000 C   0  0  0  0  0  0  0  0  0  0  0  0
   -0.5386    4.9633    0.0000 C   0  0  0  0  0  0  0  0  0  0  0  0
   -7.5667    3.3152    0.0000 C   0  0  0  0  0  0  0  0  0  0  0  0
  1  2  2  0  0  0  0
  2  3  1  0  0  0  0
  2  4  1  0  0  0  0
  3  5  2  0  0  0  0
  4  6  1  0  0  0  0
  5  7  1  0  0  0  0
  5  8  1  0  0  0  0
  7  9  2  0  0  0  0
  8 10  1  0  0  0  0
  9 11  1  0  0  0  0
  9 12  1  0  0  0  0
 11 13  1  6  0  0  0
 11 14  1  0  0  0  0
 12 15  1  0  0  0  0
 13 16  2  0  0  0  0
 13 17  1  0  0  0  0
 14 18  1  0  0  0  0
 15 19  1  6  0  0  0
 16 20  1  0  0  0  0
 17 21  2  0  0  0  0
 18 22  1  0  0  0  0
 18 23  1  6  0  0  0
 19 24  1  0  0  0  0
 20 25  2  0  0  0  0
 22 26  1  6  0  0  0
 22 27  1  0  0  0  0
 25 28  1  0  0  0  0
 27 29  3  0  0  0  0
 28 30  1  0  0  0  0
 28 31  1  0  0  0  0
 29 32  1  0  0  0  0
  6  7  1  0  0  0  0
 12 10  1  1  0  0  0
 15 18  1  0  0  0  0
 21 25  1  0  0  0  0
 22 24  1  0  0  0  0
M  END

>  <name>
Mifepristone

>  <ROTATABLE_BONDCOUNT>
3

>  <HBDScore>
0.8333333333333334

>  <dipole>
6.41

>  <logD>
5.13

>  <MPOScore>
3.336161904761905

>  <logDScore>
0.0

>  <MW>
429.604

>  <charge_dist(7.4)>
0.00

>  <CNS>
TRUE

>  <ArRings>
1

>  <HBD>
1

>  <BALABAN_INDEX>
1.46

>  <bpKa>
4.89

>  <TPSAScore>
1.0

>  <MWScore>
0.5028285714285716

>  <bpKaScore>
1.0

>  <logPScore>
0.0

>  <MPO_area>
37.54

>  <TPSA>
40.54

>  <logP>
5.13

$$$$

  Mrv1722703221715202D          

 22 24  0  0  0  0            999 V2000
    0.0000    0.0000    0.0000 O   0  0  0  0  0  0  0  0  0  0  0  0
    0.1455   -0.7971    0.0000 C   0  0  0  0  0  0  0  0  0  0  0  0
   -0.7781    0.2783    0.0000 C   0  0  0  0  0  0  0  0  0  0  0  0
   -0.4808   -1.3221    0.0000 C   0  0  0  0  0  0  0  0  0  0  0  0
   -1.4043   -0.2467    0.0000 C   0  0  0  0  0  0  0  0  0  0  0  0
   -1.2588   -1.0438    0.0000 N   0  0  0  0  0  0  0  0  0  0  0  0
   -1.8851   -1.5688    0.0000 C   0  0  0  0  0  0  0  0  0  0  0  0
   -2.6632   -1.2905    0.0000 C   0  0  0  0  0  0  0  0  0  0  0  0
   -3.2895   -1.8155    0.0000 N   0  0  0  0  0  0  0  0  0  0  0  0
   -4.0676   -1.5372    0.0000 C   0  0  0  0  0  0  0  0  0  0  0  0
   -4.2257   -0.7275    0.0000 N   0  0  0  0  0  0  0  0  0  0  0  0
   -4.6938   -2.0622    0.0000 C   0  0  0  0  0  0  0  0  0  0  0  0
   -5.0038   -0.4491    0.0000 N   0  0  0  0  0  0  0  0  0  0  0  0
   -5.4719   -1.7839    0.0000 C   0  0  0  0  0  0  0  0  0  0  0  0
   -4.5483   -2.8593    0.0000 C   0  0  0  0  0  0  0  0  0  0  0  0
   -5.6301   -0.9742    0.0000 C   0  0  0  0  0  0  0  0  0  0  0  0
   -6.4081   -0.6958    0.0000 C   0  0  0  0  0  0  0  0  0  0  0  0
   -6.5663    0.1139    0.0000 C   0  0  0  0  0  0  0  0  0  0  0  0
   -7.0344   -1.2209    0.0000 C   0  0  0  0  0  0  0  0  0  0  0  0
   -7.3444    0.3922    0.0000 C   0  0  0  0  0  0  0  0  0  0  0  0
   -7.8125   -0.9426    0.0000 C   0  0  0  0  0  0  0  0  0  0  0  0
   -7.9707   -0.1329    0.0000 C   0  0  0  0  0  0  0  0  0  0  0  0
  1  2  1  0  0  0  0
  1  3  1  0  0  0  0
  2  4  1  0  0  0  0
  3  5  1  0  0  0  0
  4  6  1  0  0  0  0
  6  7  1  0  0  0  0
  7  8  1  0  0  0  0
  8  9  1  0  0  0  0
  9 10  1  0  0  0  0
 10 11  2  0  0  0  0
 10 12  1  0  0  0  0
 11 13  1  0  0  0  0
 12 14  2  0  0  0  0
 12 15  1  0  0  0  0
 13 16  2  0  0  0  0
 16 17  1  0  0  0  0
 17 18  2  0  0  0  0
 17 19  1  0  0  0  0
 18 20  1  0  0  0  0
 19 21  2  0  0  0  0
 20 22  2  0  0  0  0
  5  6  1  0  0  0  0
 14 16  1  0  0  0  0
 21 22  1  0  0  0  0
M  END

>  <name>
Minaprine

>  <ROTATABLE_BONDCOUNT>
5

>  <HBDScore>
0.8333333333333334

>  <dipole>
5.72

>  <logD>
2.16

>  <MPOScore>
5.753333333333333

>  <logDScore>
0.9199999999999999

>  <MW>
298.390

>  <charge_dist(7.4)>
0.07

>  <CNS>
TRUE

>  <ArRings>
2

>  <HBD>
1

>  <BALABAN_INDEX>
1.35

>  <bpKa>
6.28

>  <TPSAScore>
1.0

>  <MWScore>
1.0

>  <bpKaScore>
1.0

>  <logPScore>
1.0

>  <MPO_area>
92.0

>  <TPSA>
50.28

>  <logP>
2.19

$$$$

  Mrv1722703221715202D          

 20 23  0  0  0  0            999 V2000
    0.0000    0.0000    0.0000 N   0  0  0  0  0  0  0  0  0  0  0  0
    0.6545    0.4990    0.0000 C   0  0  0  0  0  0  0  0  0  0  0  0
   -0.7647    0.3305    0.0000 C   0  0  0  0  0  0  0  0  0  0  0  0
    1.3479    0.0713    0.0000 N   0  0  0  0  0  0  0  0  0  0  0  0
    0.5508    1.3220    0.0000 C   0  0  0  0  0  0  0  0  0  0  0  0
   -0.8683    1.1535    0.0000 C   0  0  0  0  0  0  0  0  0  0  0  0
    2.1191    0.3564    0.0000 C   0  0  2  0  0  0  0  0  0  0  0  0
    1.1924   -0.7323    0.0000 C   0  0  0  0  0  0  0  0  0  0  0  0
   -0.2138    1.6525    0.0000 C   0  0  0  0  0  0  0  0  0  0  0  0
    1.1211    1.9182    0.0000 C   0  0  0  0  0  0  0  0  0  0  0  0
    2.3783    1.1405    0.0000 C   0  0  0  0  0  0  0  0  0  0  0  0
    2.7412   -0.1685    0.0000 C   0  0  0  0  0  0  0  0  0  0  0  0
    1.8145   -1.2572    0.0000 C   0  0  0  0  0  0  0  0  0  0  0  0
    1.9312    1.8404    0.0000 C   0  0  0  0  0  0  0  0  0  0  0  0
    3.1948    1.1859    0.0000 C   0  0  0  0  0  0  0  0  0  0  0  0
    2.5857   -0.9721    0.0000 N   0  0  0  0  0  0  0  0  0  0  0  0
    2.3005    2.5792    0.0000 C   0  0  0  0  0  0  0  0  0  0  0  0
    3.5642    1.9246    0.0000 C   0  0  0  0  0  0  0  0  0  0  0  0
    3.2078   -1.4969    0.0000 C   0  0  0  0  0  0  0  0  0  0  0  0
    3.1170    2.6246    0.0000 C   0  0  0  0  0  0  0  0  0  0  0  0
  1  2  2  0  0  0  0
  1  3  1  0  0  0  0
  2  4  1  0  0  0  0
  2  5  1  0  0  0  0
  3  6  2  0  0  0  0
  7  4  1  6  0  0  0
  4  8  1  0  0  0  0
  5  9  2  0  0  0  0
  5 10  1  0  0  0  0
  7 11  1  0  0  0  0
  7 12  1  0  0  0  0
  8 13  1  0  0  0  0
 10 14  1  0  0  0  0
 11 15  2  0  0  0  0
 12 16  1  0  0  0  0
 14 17  2  0  0  0  0
 15 18  1  0  0  0  0
 16 19  1  0  0  0  0
 17 20  1  0  0  0  0
  6  9  1  0  0  0  0
 11 14  1  0  0  0  0
 13 16  1  0  0  0  0
 18 20  2  0  0  0  0
M  END

>  <name>
Mirtazapine

>  <ROTATABLE_BONDCOUNT>
0

>  <HBDScore>
1.0

>  <dipole>
4.02

>  <logD>
3.13

>  <MPOScore>
4.33

>  <logDScore>
0.43500000000000005

>  <MW>
265.360

>  <charge_dist(7.4)>
0.14

>  <CNS>
TRUE

>  <ArRings>
2

>  <HBD>
0

>  <BALABAN_INDEX>
1.42

>  <bpKa>
6.67

>  <TPSAScore>
0.0

>  <MWScore>
1.0

>  <bpKaScore>
1.0

>  <logPScore>
0.895

>  <MPO_area>
54.74

>  <TPSA>
19.37

>  <logP>
3.21

$$$$

  Mrv1722703221715202D          

 18 19  0  0  0  0            999 V2000
    0.0000    0.0000    0.0000 Cl  0  0  0  0  0  0  0  0  0  0  0  0
    0.7911    0.2342    0.0000 C   0  0  0  0  0  0  0  0  0  0  0  0
    0.9873    1.0442    0.0000 C   0  0  0  0  0  0  0  0  0  0  0  0
    1.3796   -0.3354    0.0000 C   0  0  0  0  0  0  0  0  0  0  0  0
    1.7783    1.2784    0.0000 C   0  0  0  0  0  0  0  0  0  0  0  0
    2.1707   -0.1012    0.0000 C   0  0  0  0  0  0  0  0  0  0  0  0
    2.3669    0.7088    0.0000 C   0  0  0  0  0  0  0  0  0  0  0  0
    3.1579    0.9430    0.0000 C   0  0  0  0  0  0  0  0  0  0  0  0
    3.3541    1.7530    0.0000 O   0  0  0  0  0  0  0  0  0  0  0  0
    3.7465    0.3734    0.0000 N   0  0  0  0  0  0  0  0  0  0  0  0
    4.5376    0.6076    0.0000 C   0  0  0  0  0  0  0  0  0  0  0  0
    5.1262    0.0380    0.0000 C   0  0  0  0  0  0  0  0  0  0  0  0
    5.9172    0.2721    0.0000 N   0  0  0  0  0  0  0  0  0  0  0  0
    6.5058   -0.2975    0.0000 C   0  0  0  0  0  0  0  0  0  0  0  0
    6.1134    1.0822    0.0000 C   0  0  0  0  0  0  0  0  0  0  0  0
    7.2968   -0.0633    0.0000 C   0  0  0  0  0  0  0  0  0  0  0  0
    6.9045    1.3164    0.0000 C   0  0  0  0  0  0  0  0  0  0  0  0
    7.4930    0.7468    0.0000 O   0  0  0  0  0  0  0  0  0  0  0  0
  1  2  1  0  0  0  0
  2  3  2  0  0  0  0
  2  4  1  0  0  0  0
  3  5  1  0  0  0  0
  4  6  2  0  0  0  0
  5  7  2  0  0  0  0
  7  8  1  0  0  0  0
  8  9  2  0  0  0  0
  8 10  1  0  0  0  0
 10 11  1  0  0  0  0
 11 12  1  0  0  0  0
 12 13  1  0  0  0  0
 13 14  1  0  0  0  0
 13 15  1  0  0  0  0
 14 16  1  0  0  0  0
 15 17  1  0  0  0  0
 16 18  1  0  0  0  0
  6  7  1  0  0  0  0
 17 18  1  0  0  0  0
M  END

>  <name>
Moclobemide

>  <ROTATABLE_BONDCOUNT>
4

>  <HBDScore>
0.8333333333333334

>  <dipole>
5.73

>  <logD>
1.43

>  <MPOScore>
5.833333333333333

>  <logDScore>
1.0

>  <MW>
268.74

>  <charge_dist(7.4)>
0.04

>  <CNS>
TRUE

>  <ArRings>
1

>  <HBD>
1

>  <BALABAN_INDEX>
1.49

>  <bpKa>
6.02

>  <TPSAScore>
1.0

>  <MWScore>
1.0

>  <bpKaScore>
1.0

>  <logPScore>
1.0

>  <MPO_area>
94.44

>  <TPSA>
41.57

>  <logP>
1.45

$$$$

  Mrv1722703221715202D          

 20 22  0  0  0  0            999 V2000
    0.0000    0.0000    0.0000 O   0  0  0  0  0  0  0  0  0  0  0  0
   -0.4601    0.6934    0.0000 C   0  0  0  0  0  0  0  0  0  0  0  0
   -1.2895    0.6480    0.0000 C   0  0  0  0  0  0  0  0  0  0  0  0
   -0.0972    1.4385    0.0000 C   0  0  2  0  0  0  0  0  0  0  0  0
   -1.7496    1.3414    0.0000 C   0  0  0  0  0  0  0  0  0  0  0  0
   -1.8079    0.0065    0.0000 C   0  0  0  0  0  0  0  0  0  0  0  0
   -0.5573    2.1319    0.0000 C   0  0  0  0  0  0  0  0  0  0  0  0
    0.7193    1.4969    0.0000 C   0  0  0  0  0  0  0  0  0  0  0  0
   -2.5531    1.1275    0.0000 N   0  0  0  0  0  2  0  0  0  0  0  0
   -1.3867    2.0865    0.0000 C   0  0  0  0  0  0  0  0  0  0  0  0
   -2.5855    0.2981    0.0000 C   0  0  0  0  0  0  0  0  0  0  0  0
   -1.5941   -0.7841    0.0000 C   0  0  0  0  0  0  0  0  0  0  0  0
    1.1664    0.8165    0.0000 N   0  0  0  0  0  0  0  0  0  0  0  0
   -3.2789   -0.1491    0.0000 C   0  0  0  0  0  0  0  0  0  0  0  0
   -2.1773   -1.3673    0.0000 C   0  0  0  0  0  0  0  0  0  0  0  0
    0.7906    0.0842    0.0000 C   0  0  0  0  0  0  0  0  0  0  0  0
    1.9829    0.8748    0.0000 C   0  0  0  0  0  0  0  0  0  0  0  0
    1.2377   -0.5962    0.0000 C   0  0  0  0  0  0  0  0  0  0  0  0
    2.4300    0.1944    0.0000 C   0  0  0  0  0  0  0  0  0  0  0  0
    2.0542   -0.5378    0.0000 O   0  0  0  0  0  0  0  0  0  0  0  0
  1  2  2  0  0  0  0
  2  3  1  0  0  0  0
  2  4  1  0  0  0  0
  3  5  2  0  0  0  0
  3  6  1  0  0  0  0
  4  7  1  0  0  0  0
  4  8  1  6  0  0  0
  5  9  1  0  0  0  0
  5 10  1  0  0  0  0
  6 11  2  0  0  0  0
  6 12  1  0  0  0  0
  8 13  1  0  0  0  0
 11 14  1  0  0  0  0
 12 15  1  0  0  0  0
 13 16  1  0  0  0  0
 13 17  1  0  0  0  0
 16 18  1  0  0  0  0
 17 19  1  0  0  0  0
 18 20  1  0  0  0  0
  7 10  1  0  0  0  0
  9 11  1  0  0  0  0
 19 20  1  0  0  0  0
M  RAD  1   9   2
M  END

>  <name>
Molindone

>  <ROTATABLE_BONDCOUNT>
3

>  <HBDScore>
1.0

>  <logD>
1.42

>  <MPOScore>
6.0

>  <logDScore>
1.0

>  <MW>
275.372

>  <charge_dist(7.4)>
0.07

>  <CNS>
TRUE

>  <ArRings>
1

>  <HBD>
0

>  <BALABAN_INDEX>
1.48

>  <bpKa>
6.3

>  <TPSAScore>
1.0

>  <MWScore>
1.0

>  <bpKaScore>
1.0

>  <logPScore>
1.0

>  <MPO_area>
100.0

>  <TPSA>
42.43

>  <logP>
1.45

$$$$

  Mrv1722703221715202D          

 27 29  0  0  0  0            999 V2000
    0.0000    0.0000    0.0000 O   0  0  0  0  0  0  0  0  0  0  0  0
    0.5123    0.6467    0.0000 C   0  0  0  0  0  0  0  0  0  0  0  0
    1.3190    0.5251    0.0000 C   0  0  0  0  0  0  0  0  0  0  0  0
    0.2113    1.4215    0.0000 C   0  0  0  0  0  0  0  0  0  0  0  0
    1.8313    1.1718    0.0000 C   0  0  2  0  0  0  0  0  0  0  0  0
    0.7236    2.0683    0.0000 C   0  0  0  0  0  0  0  0  0  0  0  0
    2.6381    1.0501    0.0000 C   0  0  0  0  0  0  0  0  0  0  0  0
    1.5304    1.9466    0.0000 C   0  0  2  0  0  0  0  0  0  0  0  0
    3.1504    1.6968    0.0000 C   0  0  0  0  0  0  0  0  0  0  0  0
    2.9263    0.2881    0.0000 C   0  0  0  0  0  0  0  0  0  0  0  0
    2.0426    2.5933    0.0000 C   0  0  0  0  0  0  0  0  0  0  0  0
    2.8494    2.4716    0.0000 O   0  0  0  0  0  0  0  0  0  0  0  0
    3.9572    1.5752    0.0000 C   0  0  0  0  0  0  0  0  0  0  0  0
    2.4012   -0.3458    0.0000 O   0  0  0  0  0  0  0  0  0  0  0  0
    3.7331    0.1665    0.0000 C   0  0  0  0  0  0  0  0  0  0  0  0
    1.3126    2.9967    0.0000 C   0  0  0  0  0  0  0  0  0  0  0  0
    2.3051    3.3809    0.0000 C   0  0  0  0  0  0  0  0  0  0  0  0
    4.2453    0.8132    0.0000 C   0  0  0  0  0  0  0  0  0  0  0  0
    5.0521    0.6916    0.0000 C   0  0  0  0  0  0  0  0  0  0  0  0
    5.8589    0.5699    0.0000 C   0  0  0  0  0  0  0  0  0  0  0  0
    4.9177   -0.1153    0.0000 C   0  0  0  0  0  0  0  0  0  0  0  0
    5.1738    1.5111    0.0000 C   0  0  0  0  0  0  0  0  0  0  0  0
    6.3711    1.2166    0.0000 C   0  0  0  0  0  0  0  0  0  0  0  0
    7.1780    1.0949    0.0000 C   0  0  0  0  0  0  0  0  0  0  0  0
    7.6902    1.7417    0.0000 C   0  0  0  0  0  0  0  0  0  0  0  0
    8.4970    1.6200    0.0000 C   0  0  0  0  0  0  0  0  0  0  0  0
    9.0093    2.2667    0.0000 C   0  0  0  0  0  0  0  0  0  0  0  0
  1  2  2  0  0  0  0
  2  3  1  0  0  0  0
  2  4  1  0  0  0  0
  5  3  1  1  0  0  0
  4  6  1  0  0  0  0
  5  7  1  0  0  0  0
  5  8  1  0  0  0  0
  7  9  2  0  0  0  0
  7 10  1  0  0  0  0
  8 11  1  0  0  0  0
  9 12  1  0  0  0  0
  9 13  1  0  0  0  0
 10 14  1  0  0  0  0
 10 15  2  0  0  0  0
 11 16  1  0  0  0  0
 11 17  1  0  0  0  0
 13 18  2  0  0  0  0
 18 19  1  0  0  0  0
 19 20  1  0  0  0  0
 19 21  1  0  0  0  0
 19 22  1  0  0  0  0
 20 23  1  0  0  0  0
 23 24  1  0  0  0  0
 24 25  1  0  0  0  0
 25 26  1  0  0  0  0
 26 27  1  0  0  0  0
  8  6  1  6  0  0  0
 11 12  1  0  0  0  0
 15 18  1  0  0  0  0
M  END

>  <name>
Nabilone

>  <ROTATABLE_BONDCOUNT>
6

>  <HBDScore>
0.8333333333333334

>  <dipole>
3.11

>  <logD>
6.35

>  <MPOScore>
3.7436976190476194

>  <logDScore>
0.0

>  <MW>
372.549

>  <charge_dist(7.4)>
-0.01

>  <CNS>
TRUE

>  <ArRings>
1

>  <HBD>
1

>  <BALABAN_INDEX>
1.65

>  <bpKa>
-4.89

>  <TPSAScore>
1.0

>  <MWScore>
0.9103642857142858

>  <bpKaScore>
1.0

>  <logPScore>
0.0

>  <MPO_area>
44.48

>  <TPSA>
46.53

>  <logP>
6.36

$$$$

  Mrv1722703221715202D          

 25 30  0  0  0  0            999 V2000
    0.0000    0.0000    0.0000 O   0  0  0  0  0  0  0  0  0  0  0  0
    0.7985   -0.1755    0.0000 C   0  0  0  0  0  0  0  0  0  0  0  0
   -0.0790    0.8336    0.0000 C   0  0  2  0  0  0  0  0  0  0  0  0
    1.1933   -0.8862    0.0000 C   0  0  0  0  0  0  0  0  0  0  0  0
    1.2109    0.5440    0.0000 C   0  0  0  0  0  0  0  0  0  0  0  0
   -0.7458    1.3425    0.0000 C   0  0  0  0  0  0  0  0  0  0  0  0
    0.6756    1.1670    0.0000 C   0  0  1  0  0  0  0  0  0  0  0  0
    0.7634   -1.5882    0.0000 O   0  0  0  0  0  0  0  0  0  0  0  0
    2.0094   -0.8950    0.0000 C   0  0  0  0  0  0  0  0  0  0  0  0
    2.0270    0.5352    0.0000 C   0  0  0  0  0  0  0  0  0  0  0  0
   -1.5180    1.0266    0.0000 C   0  0  0  0  0  0  0  0  0  0  0  0
   -0.6581    2.1674    0.0000 C   0  0  0  0  0  0  0  0  0  0  0  0
    0.7634    1.9918    0.0000 C   0  0  1  0  0  0  0  0  0  0  0  0
    1.3689    1.0617    0.0000 C   0  0  0  0  0  0  0  0  0  0  0  0
    2.4218   -0.1755    0.0000 C   0  0  0  0  0  0  0  0  0  0  0  0
    1.3074    1.5268    0.0000 C   0  0  0  0  0  0  0  0  0  0  0  0
    0.0965    2.5008    0.0000 C   0  0  0  0  0  0  0  0  0  0  0  0
    0.8512    2.8166    0.0000 O   0  0  0  0  0  0  0  0  0  0  0  0
    1.5180    2.3253    0.0000 C   0  0  2  0  0  0  0  0  0  0  0  0
    1.7637    1.2460    0.0000 C   0  0  0  0  0  0  0  0  0  0  0  0
    1.8164    1.6847    0.0000 N   0  0  0  0  0  0  0  0  0  0  0  0
    2.9220    2.1674    0.0000 C   0  0  0  0  0  0  0  0  0  0  0  0
    3.5713    1.6760    0.0000 C   0  0  0  0  0  0  0  0  0  0  0  0
    4.3786    1.5882    0.0000 C   0  0  0  0  0  0  0  0  0  0  0  0
    3.8872    0.9214    0.0000 C   0  0  0  0  0  0  0  0  0  0  0  0
  1  2  1  0  0  0  0
  3  1  1  6  0  0  0
  2  4  2  0  0  0  0
  2  5  1  0  0  0  0
  3  6  1  0  0  0  0
  3  7  1  0  0  0  0
  4  8  1  0  0  0  0
  4  9  1  0  0  0  0
  5 10  2  0  0  0  0
  6 11  2  0  0  0  0
  6 12  1  0  0  0  0
  7 13  1  0  0  0  0
  7 14  1  1  0  0  0
  9 15  2  0  0  0  0
 10 16  1  0  0  0  0
 12 17  1  0  0  0  0
 13 18  1  1  0  0  0
 13 19  1  0  0  0  0
 14 20  1  0  0  0  0
 19 21  1  1  0  0  0
 21 22  1  0  0  0  0
 22 23  1  0  0  0  0
 23 24  1  0  0  0  0
 23 25  1  0  0  0  0
  5  7  1  0  0  0  0
 10 15  1  0  0  0  0
 13 17  1  0  0  0  0
 16 19  1  0  0  0  0
 20 21  1  0  0  0  0
 24 25  1  0  0  0  0
M  END

>  <name>
Nalmefene

>  <ROTATABLE_BONDCOUNT>
2

>  <HBDScore>
0.5

>  <dipole>
4.49

>  <logD>
0.07

>  <MPOScore>
4.715

>  <logDScore>
1.0

>  <MW>
339.435

>  <charge_dist(7.4)>
0.99

>  <CNS>
TRUE

>  <ArRings>
1

>  <HBD>
2

>  <BALABAN_INDEX>
1.36

>  <bpKa>
9.57

>  <TPSAScore>
1.0

>  <MWScore>
1.0

>  <bpKaScore>
0.21499999999999986

>  <logPScore>
1.0

>  <MPO_area>
63.71

>  <TPSA>
52.93

>  <logP>
1.95

$$$$

  Mrv1722703221715202D          

 46 50  0  0  0  0            999 V2000
    0.0000    0.0000    0.0000 O   0  0  0  0  0  0  0  0  0  0  0  0
    1.0560   -0.0936    0.0000 C   0  0  0  0  0  0  0  0  0  0  0  0
   -0.3208    0.7620    0.0000 C   0  0  1  0  0  0  0  0  0  0  0  0
    1.7378   -0.5080    0.0000 C   0  0  0  0  0  0  0  0  0  0  0  0
    1.0694    0.7352    0.0000 C   0  0  0  0  0  0  0  0  0  0  0  0
    0.3876    1.1630    0.0000 C   0  0  1  0  0  0  0  0  0  0  0  0
   -1.0293    1.2031    0.0000 C   0  0  2  0  0  0  0  0  0  0  0  0
    1.6976   -1.3100    0.0000 O   0  0  0  0  0  0  0  0  0  0  0  0
    2.4462   -0.1069    0.0000 C   0  0  0  0  0  0  0  0  0  0  0  0
    1.7779    1.1362    0.0000 C   0  0  0  0  0  0  0  0  0  0  0  0
    0.4010    1.9917    0.0000 C   0  0  1  0  0  0  0  0  0  0  0  0
    0.8154    1.3234    0.0000 C   0  0  0  0  0  0  0  0  0  0  0  0
   -1.7645    0.8288    0.0000 O   0  0  0  0  0  0  0  0  0  0  0  0
   -1.0159    2.0319    0.0000 C   0  0  0  0  0  0  0  0  0  0  0  0
    2.4596    0.7218    0.0000 C   0  0  0  0  0  0  0  0  0  0  0  0
    1.7912    1.9650    0.0000 C   0  0  0  0  0  0  0  0  0  0  0  0
    0.2139    2.7938    0.0000 O   0  0  0  0  0  0  0  0  0  0  0  0
    1.1095    2.3927    0.0000 C   0  0  2  0  0  0  0  0  0  0  0  0
   -0.3075    2.4329    0.0000 C   0  0  0  0  0  0  0  0  0  0  0  0
    0.6683    1.8313    0.0000 C   0  0  0  0  0  0  0  0  0  0  0  0
   -2.4730    1.2699    0.0000 C   0  0  0  0  0  0  0  0  0  0  0  0
    1.1630    1.9516    0.0000 N   0  0  0  0  0  0  0  0  0  0  0  0
   -3.2082    0.8956    0.0000 C   0  0  0  0  0  0  0  0  0  0  0  0
    0.4278    3.6627    0.0000 C   0  0  0  0  0  0  0  0  0  0  0  0
   -3.9167    1.3368    0.0000 O   0  0  0  0  0  0  0  0  0  0  0  0
    1.1362    4.0637    0.0000 C   0  0  0  0  0  0  0  0  0  0  0  0
   -4.6519    0.9624    0.0000 C   0  0  0  0  0  0  0  0  0  0  0  0
    1.1496    4.8925    0.0000 C   0  0  0  0  0  0  0  0  0  0  0  0
   -5.3603    1.4036    0.0000 C   0  0  0  0  0  0  0  0  0  0  0  0
   -6.0955    1.0293    0.0000 O   0  0  0  0  0  0  0  0  0  0  0  0
   -6.8040    1.4704    0.0000 C   0  0  0  0  0  0  0  0  0  0  0  0
   -7.5392    1.0961    0.0000 C   0  0  0  0  0  0  0  0  0  0  0  0
   -8.2477    1.5372    0.0000 O   0  0  0  0  0  0  0  0  0  0  0  0
   -8.9829    1.1630    0.0000 C   0  0  0  0  0  0  0  0  0  0  0  0
   -9.6914    1.6041    0.0000 C   0  0  0  0  0  0  0  0  0  0  0  0
  -10.4266    1.2298    0.0000 O   0  0  0  0  0  0  0  0  0  0  0  0
  -11.1350    1.6709    0.0000 C   0  0  0  0  0  0  0  0  0  0  0  0
  -11.8703    1.2966    0.0000 C   0  0  0  0  0  0  0  0  0  0  0  0
  -12.5787    1.7378    0.0000 O   0  0  0  0  0  0  0  0  0  0  0  0
  -13.3140    1.3635    0.0000 C   0  0  0  0  0  0  0  0  0  0  0  0
  -14.0224    1.8046    0.0000 C   0  0  0  0  0  0  0  0  0  0  0  0
  -14.7576    1.4303    0.0000 O   0  0  0  0  0  0  0  0  0  0  0  0
  -15.4661    1.8714    0.0000 C   0  0  0  0  0  0  0  0  0  0  0  0
  -16.2013    1.4972    0.0000 C   0  0  0  0  0  0  0  0  0  0  0  0
  -16.9098    1.9383    0.0000 O   0  0  0  0  0  0  0  0  0  0  0  0
  -17.6450    1.5640    0.0000 C   0  0  0  0  0  0  0  0  0  0  0  0
  1  2  1  0  0  0  0
  3  1  1  6  0  0  0
  2  4  2  0  0  0  0
  2  5  1  0  0  0  0
  3  6  1  0  0  0  0
  3  7  1  0  0  0  0
  4  8  1  0  0  0  0
  4  9  1  0  0  0  0
  5 10  2  0  0  0  0
  6 11  1  0  0  0  0
  6 12  1  1  0  0  0
  7 13  1  6  0  0  0
  7 14  1  0  0  0  0
  9 15  2  0  0  0  0
 10 16  1  0  0  0  0
 11 17  1  1  0  0  0
 11 18  1  0  0  0  0
 11 19  1  0  0  0  0
 12 20  1  0  0  0  0
 13 21  1  0  0  0  0
 18 22  1  1  0  0  0
 21 23  1  0  0  0  0
 22 24  1  0  0  0  0
 23 25  1  0  0  0  0
 24 26  1  0  0  0  0
 25 27  1  0  0  0  0
 26 28  2  0  0  0  0
 27 29  1  0  0  0  0
 29 30  1  0  0  0  0
 30 31  1  0  0  0  0
 31 32  1  0  0  0  0
 32 33  1  0  0  0  0
 33 34  1  0  0  0  0
 34 35  1  0  0  0  0
 35 36  1  0  0  0  0
 36 37  1  0  0  0  0
 37 38  1  0  0  0  0
 38 39  1  0  0  0  0
 39 40  1  0  0  0  0
 40 41  1  0  0  0  0
 41 42  1  0  0  0  0
 42 43  1  0  0  0  0
 43 44  1  0  0  0  0
 44 45  1  0  0  0  0
 45 46  1  0  0  0  0
  5  6  1  0  0  0  0
 10 15  1  0  0  0  0
 14 19  1  0  0  0  0
 16 18  1  0  0  0  0
 20 22  1  0  0  0  0
M  END

>  <name>
Naloxegol

>  <ROTATABLE_BONDCOUNT>
24

>  <HBDScore>
0.5

>  <dipole>
4.60

>  <logD>
0.34

>  <MPOScore>
3.2300000000000004

>  <logDScore>
1.0

>  <MW>
651.794

>  <charge_dist(7.4)>
0.93

>  <CNS>
TRUE

>  <ArRings>
1

>  <HBD>
2

>  <BALABAN_INDEX>
0.88

>  <bpKa>
8.54

>  <TPSAScore>
0.0

>  <MWScore>
0.0

>  <bpKaScore>
0.7300000000000004

>  <logPScore>
1.0

>  <MPO_area>
34.92

>  <TPSA>
126.77

>  <logP>
1.36

$$$$

  Mrv1722703221715202D          

 23 25  0  0  0  0            999 V2000
    0.0000    0.0000    0.0000 S   0  0  0  0  0  0  0  0  0  0  0  0
   -0.4322   -0.6967    0.0000 O   0  0  0  0  0  0  0  0  0  0  0  0
    0.4193    0.7096    0.0000 O   0  0  0  0  0  0  0  0  0  0  0  0
    0.6967   -0.4193    0.0000 N   0  0  0  0  0  0  0  0  0  0  0  0
   -0.7096    0.4322    0.0000 C   0  0  0  0  0  0  0  0  0  0  0  0
    1.4063   -0.0193    0.0000 C   0  0  0  0  0  0  0  0  0  0  0  0
   -0.7031    1.2580    0.0000 C   0  0  0  0  0  0  0  0  0  0  0  0
   -1.4128    1.6902    0.0000 C   0  0  0  0  0  0  0  0  0  0  0  0
   -2.1353    1.3031    0.0000 C   0  0  0  0  0  0  0  0  0  0  0  0
   -1.4063    2.5159    0.0000 C   0  0  0  0  0  0  0  0  0  0  0  0
   -2.8449    1.7353    0.0000 C   0  0  0  0  0  0  0  0  0  0  0  0
   -2.1160    2.9481    0.0000 C   0  0  0  0  0  0  0  0  0  0  0  0
   -2.8385    2.5611    0.0000 C   0  0  0  0  0  0  0  0  0  0  0  0
   -3.6320    1.5031    0.0000 C   0  0  0  0  0  0  0  0  0  0  0  0
   -3.6190    2.8320    0.0000 N   0  0  0  0  0  2  0  0  0  0  0  0
   -4.1093    2.1805    0.0000 C   0  0  0  0  0  0  0  0  0  0  0  0
   -3.9029    0.7354    0.0000 C   0  0  0  0  0  0  0  0  0  0  0  0
   -4.7157    0.5870    0.0000 C   0  0  0  0  0  0  0  0  0  0  0  0
   -3.3739    0.1226    0.0000 C   0  0  0  0  0  0  0  0  0  0  0  0
   -4.9867   -0.1806    0.0000 C   0  0  0  0  0  0  0  0  0  0  0  0
   -3.6448   -0.6451    0.0000 C   0  0  0  0  0  0  0  0  0  0  0  0
   -4.4577   -0.7935    0.0000 N   0  0  0  0  0  0  0  0  0  0  0  0
   -4.7287   -1.5612    0.0000 C   0  0  0  0  0  0  0  0  0  0  0  0
  1  2  2  0  0  0  0
  1  3  2  0  0  0  0
  1  4  1  0  0  0  0
  1  5  1  0  0  0  0
  4  6  1  0  0  0  0
  5  7  1  0  0  0  0
  7  8  1  0  0  0  0
  8  9  2  0  0  0  0
  8 10  1  0  0  0  0
  9 11  1  0  0  0  0
 10 12  2  0  0  0  0
 11 13  2  0  0  0  0
 11 14  1  0  0  0  0
 13 15  1  0  0  0  0
 14 16  2  0  0  0  0
 14 17  1  0  0  0  0
 17 18  1  0  0  0  0
 17 19  1  0  0  0  0
 18 20  1  0  0  0  0
 19 21  1  0  0  0  0
 20 22  1  0  0  0  0
 22 23  1  0  0  0  0
 12 13  1  0  0  0  0
 15 16  1  0  0  0  0
 21 22  1  0  0  0  0
M  RAD  1  15   2
M  END

>  <name>
Naratriptan

>  <ROTATABLE_BONDCOUNT>
4

>  <HBDScore>
0.8333333333333334

>  <logD>
-0.39

>  <MPOScore>
5.358333333333333

>  <logDScore>
1.0

>  <MW>
334.46

>  <charge_dist(7.4)>
0.97

>  <CNS>
TRUE

>  <ArRings>
2

>  <HBD>
1

>  <BALABAN_INDEX>
1.47

>  <bpKa>
8.95

>  <TPSAScore>
1.0

>  <MWScore>
1.0

>  <bpKaScore>
0.5250000000000004

>  <logPScore>
1.0

>  <MPO_area>
79.93

>  <TPSA>
62.30

>  <logP>
1.17

$$$$

  Mrv1722703221715202D          

 29 32  0  0  0  0            999 V2000
    0.0000    0.0000    0.0000 F   0  0  0  0  0  0  0  0  0  0  0  0
    0.7468    0.3506    0.0000 C   0  0  0  0  0  0  0  0  0  0  0  0
    0.8247    1.1819    0.0000 C   0  0  0  0  0  0  0  0  0  0  0  0
    1.4157   -0.1234    0.0000 C   0  0  0  0  0  0  0  0  0  0  0  0
    1.5715    1.5325    0.0000 C   0  0  0  0  0  0  0  0  0  0  0  0
    2.1625    0.2273    0.0000 C   0  0  0  0  0  0  0  0  0  0  0  0
    2.2404    1.0585    0.0000 C   0  0  0  0  0  0  0  0  0  0  0  0
    1.6495    2.3638    0.0000 C   0  0  0  0  0  0  0  0  0  0  0  0
    2.9872    1.4092    0.0000 O   0  0  0  0  0  0  0  0  0  0  0  0
    2.3962    2.7144    0.0000 C   0  0  0  0  0  0  0  0  0  0  0  0
    3.0651    2.2404    0.0000 C   0  0  0  0  0  0  0  0  0  0  0  0
    3.8119    2.5911    0.0000 C   0  0  0  0  0  0  0  0  0  0  0  0
    3.8898    3.4223    0.0000 O   0  0  0  0  0  0  0  0  0  0  0  0
    4.4808    2.1170    0.0000 C   0  0  0  0  0  0  0  0  0  0  0  0
    5.2276    2.4677    0.0000 N   0  0  0  0  0  0  0  0  0  0  0  0
    5.8965    1.9936    0.0000 C   0  0  0  0  0  0  0  0  0  0  0  0
    6.6433    2.3443    0.0000 C   0  0  0  0  0  0  0  0  0  0  0  0
    6.7212    3.1755    0.0000 O   0  0  0  0  0  0  0  0  0  0  0  0
    7.3122    1.8703    0.0000 C   0  0  0  0  0  0  0  0  0  0  0  0
    8.0589    2.2209    0.0000 O   0  0  0  0  0  0  0  0  0  0  0  0
    7.2212    1.0520    0.0000 C   0  0  0  0  0  0  0  0  0  0  0  0
    8.7278    1.7469    0.0000 C   0  0  0  0  0  0  0  0  0  0  0  0
    7.8901    0.5779    0.0000 C   0  0  0  0  0  0  0  0  0  0  0  0
    8.6369    0.9286    0.0000 C   0  0  0  0  0  0  0  0  0  0  0  0
    9.4746    2.0976    0.0000 C   0  0  0  0  0  0  0  0  0  0  0  0
    9.3058    0.4546    0.0000 C   0  0  0  0  0  0  0  0  0  0  0  0
   10.1435    1.6235    0.0000 C   0  0  0  0  0  0  0  0  0  0  0  0
   10.0526    0.8052    0.0000 C   0  0  0  0  0  0  0  0  0  0  0  0
   10.7215    0.3312    0.0000 F   0  0  0  0  0  0  0  0  0  0  0  0
  1  2  1  0  0  0  0
  2  3  2  0  0  0  0
  2  4  1  0  0  0  0
  3  5  1  0  0  0  0
  4  6  2  0  0  0  0
  5  7  2  0  0  0  0
  5  8  1  0  0  0  0
  7  9  1  0  0  0  0
  8 10  1  0  0  0  0
  9 11  1  0  0  0  0
 11 12  1  0  0  0  0
 12 13  1  0  0  0  0
 12 14  1  0  0  0  0
 14 15  1  0  0  0  0
 15 16  1  0  0  0  0
 16 17  1  0  0  0  0
 17 18  1  0  0  0  0
 17 19  1  0  0  0  0
 19 20  1  0  0  0  0
 19 21  1  0  0  0  0
 20 22  1  0  0  0  0
 21 23  1  0  0  0  0
 22 24  2  0  0  0  0
 22 25  1  0  0  0  0
 24 26  1  0  0  0  0
 25 27  2  0  0  0  0
 26 28  2  0  0  0  0
 28 29  1  0  0  0  0
  6  7  1  0  0  0  0
 10 11  1  0  0  0  0
 23 24  1  0  0  0  0
 27 28  1  0  0  0  0
M  END

>  <name>
Nebivolol

>  <ROTATABLE_BONDCOUNT>
6

>  <HBDScore>
0.16666666666666674

>  <dipole>
3.86

>  <logD>
1.71

>  <MPOScore>
4.287080952380952

>  <logDScore>
1.0

>  <MW>
405.442

>  <charge_dist(7.4)>
0.97

>  <CNS>
TRUE

>  <ArRings>
2

>  <HBD>
3

>  <BALABAN_INDEX>
1.08

>  <bpKa>
8.9

>  <TPSAScore>
1.0

>  <MWScore>
0.6754142857142857

>  <bpKaScore>
0.5499999999999998

>  <logPScore>
0.895

>  <MPO_area>
52.16

>  <TPSA>
70.95

>  <logP>
3.21

$$$$

  Mrv1722703221715202D          

 33 36  0  0  0  0            999 V2000
    0.0000    0.0000    0.0000 Cl  0  0  0  0  0  0  0  0  0  0  0  0
   -0.1039    0.8250    0.0000 C   0  0  0  0  0  0  0  0  0  0  0  0
    0.5522    1.3252    0.0000 C   0  0  0  0  0  0  0  0  0  0  0  0
   -0.8705    1.1563    0.0000 C   0  0  0  0  0  0  0  0  0  0  0  0
    0.4483    2.1503    0.0000 C   0  0  0  0  0  0  0  0  0  0  0  0
   -0.9745    1.9813    0.0000 C   0  0  0  0  0  0  0  0  0  0  0  0
    1.1044    2.6504    0.0000 N   0  0  0  0  0  0  0  0  0  0  0  0
   -0.3183    2.4815    0.0000 C   0  0  0  0  0  0  0  0  0  0  0  0
    1.8579    2.3321    0.0000 C   0  0  0  0  0  0  0  0  0  0  0  0
    1.0004    3.4755    0.0000 C   0  0  0  0  0  0  0  0  0  0  0  0
    2.5140    2.8323    0.0000 C   0  0  0  0  0  0  0  0  0  0  0  0
    1.6565    3.9756    0.0000 C   0  0  0  0  0  0  0  0  0  0  0  0
    2.4101    3.6573    0.0000 N   0  0  0  0  0  0  0  0  0  0  0  0
    3.0662    4.1576    0.0000 C   0  0  0  0  0  0  0  0  0  0  0  0
    3.8198    3.8393    0.0000 C   0  0  0  0  0  0  0  0  0  0  0  0
    4.4759    4.3395    0.0000 C   0  0  0  0  0  0  0  0  0  0  0  0
    5.2294    4.0211    0.0000 N   0  0  0  0  0  0  0  0  0  0  0  0
    5.9310    4.4499    0.0000 N   0  0  0  0  0  0  0  0  0  0  0  0
    5.4048    3.2221    0.0000 C   0  0  0  0  0  0  0  0  0  0  0  0
    6.5482    3.9172    0.0000 C   0  0  0  0  0  0  0  0  0  0  0  0
    4.8591    2.6049    0.0000 O   0  0  0  0  0  0  0  0  0  0  0  0
    6.2233    3.1571    0.0000 N   0  0  0  0  0  0  0  0  0  0  0  0
    7.3472    4.1056    0.0000 C   0  0  0  0  0  0  0  0  0  0  0  0
    6.6391    2.4555    0.0000 C   0  0  0  0  0  0  0  0  0  0  0  0
    7.9059    3.5079    0.0000 C   0  0  0  0  0  0  0  0  0  0  0  0
    6.2298    1.7410    0.0000 C   0  0  0  0  0  0  0  0  0  0  0  0
    6.6456    1.0394    0.0000 O   0  0  0  0  0  0  0  0  0  0  0  0
    6.2364    0.3248    0.0000 C   0  0  0  0  0  0  0  0  0  0  0  0
    5.4048    0.3183    0.0000 C   0  0  0  0  0  0  0  0  0  0  0  0
    6.6521   -0.3768    0.0000 C   0  0  0  0  0  0  0  0  0  0  0  0
    4.9956   -0.3962    0.0000 C   0  0  0  0  0  0  0  0  0  0  0  0
    6.2428   -1.0913    0.0000 C   0  0  0  0  0  0  0  0  0  0  0  0
    5.4113   -1.0979    0.0000 C   0  0  0  0  0  0  0  0  0  0  0  0
  1  2  1  0  0  0  0
  2  3  2  0  0  0  0
  2  4  1  0  0  0  0
  3  5  1  0  0  0  0
  4  6  2  0  0  0  0
  5  7  1  0  0  0  0
  5  8  2  0  0  0  0
  7  9  1  0  0  0  0
  7 10  1  0  0  0  0
  9 11  1  0  0  0  0
 10 12  1  0  0  0  0
 11 13  1  0  0  0  0
 13 14  1  0  0  0  0
 14 15  1  0  0  0  0
 15 16  1  0  0  0  0
 16 17  1  0  0  0  0
 17 18  1  0  0  0  0
 17 19  1  0  0  0  0
 18 20  2  0  0  0  0
 19 21  2  0  0  0  0
 19 22  1  0  0  0  0
 20 23  1  0  0  0  0
 22 24  1  0  0  0  0
 23 25  1  0  0  0  0
 24 26  1  0  0  0  0
 26 27  1  0  0  0  0
 27 28  1  0  0  0  0
 28 29  2  0  0  0  0
 28 30  1  0  0  0  0
 29 31  1  0  0  0  0
 30 32  2  0  0  0  0
 31 33  2  0  0  0  0
  6  8  1  0  0  0  0
 12 13  1  0  0  0  0
 20 22  1  0  0  0  0
 32 33  1  0  0  0  0
M  END

>  <name>
Nefazodone

>  <ROTATABLE_BONDCOUNT>
10

>  <HBDScore>
1.0

>  <dipole>
5.03

>  <logD>
4.48

>  <MPOScore>
3.3892142857142855

>  <logDScore>
0.0

>  <MW>
470.01

>  <charge_dist(7.4)>
0.33

>  <CNS>
TRUE

>  <ArRings>
3

>  <HBD>
0

>  <BALABAN_INDEX>
1.09

>  <bpKa>
7.09

>  <TPSAScore>
1.0

>  <MWScore>
0.2142142857142858

>  <bpKaScore>
1.0

>  <logPScore>
0.17499999999999982

>  <MPO_area>
37.53

>  <TPSA>
51.62

>  <logP>
4.65

$$$$

  Mrv1722703221715202D          

 27 29  0  0  0  0            999 V2000
    0.0000    0.0000    0.0000 Cl  0  0  0  0  0  0  0  0  0  0  0  0
   -0.0261   -0.8219    0.0000 C   0  0  0  0  0  0  0  0  0  0  0  0
   -0.7632   -1.2132    0.0000 C   0  0  0  0  0  0  0  0  0  0  0  0
    0.6718   -1.2459    0.0000 C   0  0  0  0  0  0  0  0  0  0  0  0
   -1.4742   -0.7762    0.0000 N   0  0  0  0  0  0  0  0  0  0  0  0
   -0.7893   -2.0351    0.0000 C   0  0  0  0  0  0  0  0  0  0  0  0
    0.6457   -2.0678    0.0000 C   0  0  0  0  0  0  0  0  0  0  0  0
   -2.2112   -1.1676    0.0000 C   0  0  0  0  0  0  0  0  0  0  0  0
   -0.0913   -2.4591    0.0000 C   0  0  0  0  0  0  0  0  0  0  0  0
    1.3437   -2.4917    0.0000 C   0  0  0  0  0  0  0  0  0  0  0  0
   -0.1174   -3.2810    0.0000 O   0  0  0  0  0  0  0  0  0  0  0  0
    1.3176   -3.3136    0.0000 O   0  0  0  0  0  0  0  0  0  0  0  0
    2.0678   -2.0873    0.0000 N   0  0  0  0  0  0  0  0  0  0  0  0
   -0.8545   -3.6723    0.0000 C   0  0  0  0  0  0  0  0  0  0  0  0
    2.7657   -2.5113    0.0000 C   0  0  0  0  0  0  0  0  0  0  0  0
    3.5223   -2.1851    0.0000 C   0  0  0  0  0  0  0  0  0  0  0  0
    2.8244   -3.3332    0.0000 C   0  0  0  0  0  0  0  0  0  0  0  0
    4.0507   -2.8114    0.0000 N   0  0  0  0  0  0  0  0  0  0  0  0
    3.7115   -1.3698    0.0000 C   0  0  0  0  0  0  0  0  0  0  0  0
    3.6267   -3.5223    0.0000 C   0  0  0  0  0  0  0  0  0  0  0  0
    4.8725   -2.7396    0.0000 C   0  0  0  0  0  0  0  0  0  0  0  0
    5.2248   -1.9829    0.0000 C   0  0  0  0  0  0  0  0  0  0  0  0
    6.0467   -1.9112    0.0000 C   0  0  0  0  0  0  0  0  0  0  0  0
    4.7486   -1.2915    0.0000 C   0  0  0  0  0  0  0  0  0  0  0  0
    6.3989   -1.1545    0.0000 C   0  0  0  0  0  0  0  0  0  0  0  0
    5.1009   -0.5349    0.0000 C   0  0  0  0  0  0  0  0  0  0  0  0
    5.9227   -0.4631    0.0000 C   0  0  0  0  0  0  0  0  0  0  0  0
  1  2  1  0  0  0  0
  2  3  2  0  0  0  0
  2  4  1  0  0  0  0
  3  5  1  0  0  0  0
  3  6  1  0  0  0  0
  4  7  2  0  0  0  0
  5  8  1  0  0  0  0
  6  9  2  0  0  0  0
  7 10  1  0  0  0  0
  9 11  1  0  0  0  0
 10 12  2  0  0  0  0
 10 13  1  0  0  0  0
 11 14  1  0  0  0  0
 13 15  1  0  0  0  0
 15 16  1  0  0  0  0
 15 17  1  0  0  0  0
 16 18  1  0  0  0  0
 16 19  1  0  0  0  0
 17 20  1  0  0  0  0
 18 21  1  0  0  0  0
 21 22  1  0  0  0  0
 22 23  2  0  0  0  0
 22 24  1  0  0  0  0
 23 25  1  0  0  0  0
 24 26  2  0  0  0  0
 25 27  2  0  0  0  0
  7  9  1  0  0  0  0
 18 20  1  0  0  0  0
 26 27  1  0  0  0  0
M  END

>  <name>
Nemonapride

>  <ROTATABLE_BONDCOUNT>
6

>  <HBDScore>
0.5

>  <dipole>
10.54

>  <logD>
2.21

>  <MPOScore>
5.060642857142858

>  <logDScore>
0.895

>  <MW>
387.91

>  <charge_dist(7.4)>
0.86

>  <CNS>
TRUE

>  <ArRings>
2

>  <HBD>
2

>  <BALABAN_INDEX>
1.46

>  <bpKa>
8.2

>  <TPSAScore>
1.0

>  <MWScore>
0.800642857142857

>  <bpKaScore>
0.9000000000000004

>  <logPScore>
0.9650000000000001

>  <MPO_area>
70.93

>  <TPSA>
53.60

>  <logP>
3.07

$$$$

  Mrv1722703221715202D          

 35 37  0  0  0  0            999 V2000
    0.0000    0.0000    0.0000 O   0  0  0  0  0  0  0  0  0  0  0  0
   -0.8158   -0.1211    0.0000 N   0  3  0  0  0  0  0  0  0  0  0  0
   -1.1217   -0.8795    0.0000 O   0  5  0  0  0  0  0  0  0  0  0  0
   -1.3321    0.5226    0.0000 C   0  0  0  0  0  0  0  0  0  0  0  0
   -1.0388    1.2938    0.0000 C   0  0  0  0  0  0  0  0  0  0  0  0
   -2.1478    0.4015    0.0000 C   0  0  0  0  0  0  0  0  0  0  0  0
   -1.5551    1.9375    0.0000 C   0  0  0  0  0  0  0  0  0  0  0  0
   -2.6641    1.0452    0.0000 C   0  0  0  0  0  0  0  0  0  0  0  0
   -2.3709    1.8164    0.0000 C   0  0  0  0  0  0  0  0  0  0  0  0
   -1.2619    2.7087    0.0000 C   0  0  2  0  0  0  0  0  0  0  0  0
   -0.4589    2.8425    0.0000 C   0  0  0  0  0  0  0  0  0  0  0  0
   -1.7782    3.3524    0.0000 C   0  0  0  0  0  0  0  0  0  0  0  0
   -0.1657    3.6137    0.0000 C   0  0  0  0  0  0  0  0  0  0  0  0
    0.0446    2.2116    0.0000 C   0  0  0  0  0  0  0  0  0  0  0  0
   -1.4850    4.1236    0.0000 C   0  0  0  0  0  0  0  0  0  0  0  0
   -2.5939    3.2313    0.0000 C   0  0  0  0  0  0  0  0  0  0  0  0
   -0.6819    4.2574    0.0000 N   0  0  0  0  0  0  0  0  0  0  0  0
    0.6373    3.7475    0.0000 C   0  0  0  0  0  0  0  0  0  0  0  0
   -0.2613    1.4532    0.0000 O   0  0  0  0  0  0  0  0  0  0  0  0
    0.8477    2.3454    0.0000 O   0  0  0  0  0  0  0  0  0  0  0  0
   -2.0013    4.7673    0.0000 C   0  0  0  0  0  0  0  0  0  0  0  0
   -3.1102    3.8750    0.0000 O   0  0  0  0  0  0  0  0  0  0  0  0
   -2.8999    2.4728    0.0000 O   0  0  0  0  0  0  0  0  0  0  0  0
    1.3511    1.7144    0.0000 C   0  0  0  0  0  0  0  0  0  0  0  0
   -3.7157    2.3517    0.0000 C   0  0  0  0  0  0  0  0  0  0  0  0
    2.1542    1.8483    0.0000 C   0  0  0  0  0  0  0  0  0  0  0  0
    2.6577    1.2173    0.0000 N   0  0  0  0  0  0  0  0  0  0  0  0
    3.4608    1.3511    0.0000 C   0  0  0  0  0  0  0  0  0  0  0  0
    2.3517    0.4589    0.0000 C   0  0  0  0  0  0  0  0  0  0  0  0
    3.7539    2.1224    0.0000 C   0  0  0  0  0  0  0  0  0  0  0  0
    4.5570    2.2562    0.0000 C   0  0  0  0  0  0  0  0  0  0  0  0
    3.2377    2.7661    0.0000 C   0  0  0  0  0  0  0  0  0  0  0  0
    4.8501    3.0273    0.0000 C   0  0  0  0  0  0  0  0  0  0  0  0
    3.5308    3.5372    0.0000 C   0  0  0  0  0  0  0  0  0  0  0  0
    4.3339    3.6711    0.0000 C   0  0  0  0  0  0  0  0  0  0  0  0
  1  2  2  0  0  0  0
  2  3  1  0  0  0  0
  2  4  1  0  0  0  0
  4  5  2  0  0  0  0
  4  6  1  0  0  0  0
  5  7  1  0  0  0  0
  6  8  2  0  0  0  0
  7  9  2  0  0  0  0
 10  7  1  1  0  0  0
 10 11  1  0  0  0  0
 10 12  1  0  0  0  0
 11 13  2  0  0  0  0
 11 14  1  0  0  0  0
 12 15  2  0  0  0  0
 12 16  1  0  0  0  0
 13 17  1  0  0  0  0
 13 18  1  0  0  0  0
 14 19  2  0  0  0  0
 14 20  1  0  0  0  0
 15 21  1  0  0  0  0
 16 22  2  0  0  0  0
 16 23  1  0  0  0  0
 20 24  1  0  0  0  0
 23 25  1  0  0  0  0
 24 26  1  0  0  0  0
 26 27  1  0  0  0  0
 27 28  1  0  0  0  0
 27 29  1  0  0  0  0
 28 30  1  0  0  0  0
 30 31  2  0  0  0  0
 30 32  1  0  0  0  0
 31 33  1  0  0  0  0
 32 34  2  0  0  0  0
 33 35  2  0  0  0  0
  8  9  1  0  0  0  0
 15 17  1  0  0  0  0
 34 35  1  0  0  0  0
M  CHG  2   2   1   3  -1
M  END

>  <name>
Nicardipine

>  <ROTATABLE_BONDCOUNT>
11

>  <HBDScore>
0.8333333333333334

>  <dipole>
14.10

>  <logD>
2.78

>  <MPOScore>
3.5591928571428575

>  <logDScore>
0.6100000000000001

>  <MW>
479.533

>  <charge_dist(7.4)>
0.83

>  <CNS>
TRUE

>  <ArRings>
2

>  <HBD>
1

>  <BALABAN_INDEX>
1.62

>  <bpKa>
8.1

>  <TPSAScore>
0.2996666666666665

>  <MWScore>
0.146192857142857

>  <bpKaScore>
0.9500000000000002

>  <logPScore>
0.72

>  <MPO_area>
36.61

>  <TPSA>
111.01

>  <logP>
3.56

$$$$

  Mrv1722703221715202D          

 31 35  0  0  0  0            999 V2000
    0.0000    0.0000    0.0000 Br  0  0  0  0  0  0  0  0  0  0  0  0
    0.0587   -0.8216    0.0000 C   0  0  0  0  0  0  0  0  0  0  0  0
   -0.6324   -1.2845    0.0000 C   0  0  0  0  0  0  0  0  0  0  0  0
    0.8020   -1.1737    0.0000 C   0  0  0  0  0  0  0  0  0  0  0  0
   -0.5738   -2.1060    0.0000 N   0  0  0  0  0  0  0  0  0  0  0  0
    0.8607   -1.9952    0.0000 C   0  0  0  0  0  0  0  0  0  0  0  0
    0.1695   -2.4582    0.0000 C   0  0  0  0  0  0  0  0  0  0  0  0
    1.6040   -2.3473    0.0000 C   0  0  0  0  0  0  0  0  0  0  0  0
    1.6627   -3.1689    0.0000 O   0  0  0  0  0  0  0  0  0  0  0  0
    2.2821   -1.8713    0.0000 O   0  0  0  0  0  0  0  0  0  0  0  0
    3.0254   -2.2234    0.0000 C   0  0  0  0  0  0  0  0  0  0  0  0
    3.7035   -1.7474    0.0000 C   0  0  2  0  0  0  0  0  0  0  0  0
    3.6318   -0.9129    0.0000 C   0  0  0  0  0  0  0  0  0  0  0  0
    4.4468   -2.0995    0.0000 C   0  0  0  0  0  0  0  0  0  0  0  0
    4.3099   -0.4369    0.0000 N   0  0  0  0  0  0  0  0  0  0  0  0
    5.1249   -1.6236    0.0000 C   0  0  1  0  0  0  0  0  0  0  0  0
    5.0532   -0.7889    0.0000 C   0  0  2  0  0  0  0  0  0  0  0  0
    4.2382    0.3978    0.0000 C   0  0  0  0  0  0  0  0  0  0  0  0
    5.1836   -2.4451    0.0000 O   0  0  0  0  0  0  0  0  0  0  0  0
    5.8683   -1.9757    0.0000 C   0  0  0  0  0  0  0  0  0  0  0  0
    5.7313   -0.3130    0.0000 C   0  0  0  0  0  0  0  0  0  0  0  0
    4.4925   -2.9081    0.0000 C   0  0  0  0  0  0  0  0  0  0  0  0
    6.5464   -1.4997    0.0000 C   0  0  0  0  0  0  0  0  0  0  0  0
    5.9270   -2.7972    0.0000 C   0  0  0  0  0  0  0  0  0  0  0  0
    6.4747   -0.6651    0.0000 C   0  0  0  0  0  0  0  0  0  0  0  0
    7.2897   -1.8518    0.0000 C   0  0  0  0  0  0  0  0  0  0  0  0
    6.6702   -3.1493    0.0000 C   0  0  0  0  0  0  0  0  0  0  0  0
    7.2636   -0.4238    0.0000 C   0  0  0  0  0  0  0  0  0  0  0  0
    7.7331   -1.1085    0.0000 N   0  0  0  0  0  0  0  0  0  0  0  0
    7.3484   -2.6733    0.0000 C   0  0  0  0  0  0  0  0  0  0  0  0
    8.5546   -1.1215    0.0000 C   0  0  0  0  0  0  0  0  0  0  0  0
  1  2  1  0  0  0  0
  2  3  2  0  0  0  0
  2  4  1  0  0  0  0
  3  5  1  0  0  0  0
  4  6  2  0  0  0  0
  5  7  2  0  0  0  0
  6  8  1  0  0  0  0
  8  9  2  0  0  0  0
  8 10  1  0  0  0  0
 10 11  1  0  0  0  0
 12 11  1  6  0  0  0
 12 13  1  0  0  0  0
 12 14  1  0  0  0  0
 13 15  1  0  0  0  0
 14 16  1  0  0  0  0
 17 15  1  1  0  0  0
 15 18  1  0  0  0  0
 16 19  1  1  0  0  0
 16 20  1  0  0  0  0
 17 21  1  0  0  0  0
 19 22  1  0  0  0  0
 20 23  2  0  0  0  0
 20 24  1  0  0  0  0
 21 25  1  0  0  0  0
 23 26  1  0  0  0  0
 24 27  2  0  0  0  0
 25 28  2  0  0  0  0
 26 29  1  0  0  0  0
 26 30  2  0  0  0  0
 29 31  1  0  0  0  0
  6  7  1  0  0  0  0
 16 17  1  0  0  0  0
 23 25  1  0  0  0  0
 27 30  1  0  0  0  0
 28 29  1  0  0  0  0
M  END

>  <name>
Nicergoline

>  <ROTATABLE_BONDCOUNT>
5

>  <HBDScore>
1.0

>  <dipole>
3.67

>  <logD>
2.90

>  <MPOScore>
4.2514714285714295

>  <logDScore>
0.55

>  <MW>
484.394

>  <charge_dist(7.4)>
0.84

>  <CNS>
TRUE

>  <ArRings>
3

>  <HBD>
0

>  <BALABAN_INDEX>
1.11

>  <bpKa>
8.12

>  <TPSAScore>
1.0

>  <MWScore>
0.11147142857142855

>  <bpKaScore>
0.9400000000000004

>  <logPScore>
0.6499999999999999

>  <MPO_area>
51.35

>  <TPSA>
56.59

>  <logP>
3.70

$$$$

  Mrv1722703221715202D          

 12 13  0  0  0  0            999 V2000
    0.0000    0.0000    0.0000 N   0  0  0  0  0  0  0  0  0  0  0  0
   -0.8274   -0.0582    0.0000 C   0  0  0  0  0  0  0  0  0  0  0  0
    0.4590   -0.6723    0.0000 C   0  0  0  0  0  0  0  0  0  0  0  0
   -1.1894   -0.7951    0.0000 C   0  0  0  0  0  0  0  0  0  0  0  0
    0.0970   -1.4092    0.0000 C   0  0  0  0  0  0  0  0  0  0  0  0
   -0.7304   -1.4674    0.0000 C   0  0  0  0  0  0  0  0  0  0  0  0
   -2.0168   -0.8533    0.0000 C   0  0  1  0  0  0  0  0  0  0  0  0
   -2.5598   -0.2198    0.0000 N   0  0  0  0  0  0  0  0  0  0  0  0
   -2.4564   -1.5514    0.0000 C   0  0  0  0  0  0  0  0  0  0  0  0
   -3.3291   -0.5301    0.0000 C   0  0  0  0  0  0  0  0  0  0  0  0
   -2.3724    0.5883    0.0000 C   0  0  0  0  0  0  0  0  0  0  0  0
   -3.2644   -1.3510    0.0000 C   0  0  0  0  0  0  0  0  0  0  0  0
  1  2  2  0  0  0  0
  1  3  1  0  0  0  0
  2  4  1  0  0  0  0
  3  5  2  0  0  0  0
  4  6  2  0  0  0  0
  7  4  1  6  0  0  0
  7  8  1  0  0  0  0
  7  9  1  0  0  0  0
  8 10  1  0  0  0  0
  8 11  1  0  0  0  0
  9 12  1  0  0  0  0
  5  6  1  0  0  0  0
 10 12  1  0  0  0  0
M  END

>  <name>
Nicotine

>  <ROTATABLE_BONDCOUNT>
1

>  <HBDScore>
1.0

>  <dipole>
1.52

>  <logD>
-0.04

>  <MPOScore>
4.71

>  <logDScore>
1.0

>  <MW>
162.236

>  <charge_dist(7.4)>
0.94

>  <CNS>
TRUE

>  <ArRings>
1

>  <HBD>
0

>  <BALABAN_INDEX>
1.74

>  <bpKa>
8.58

>  <TPSAScore>
0.0

>  <MWScore>
1.0

>  <bpKaScore>
0.71

>  <logPScore>
1.0

>  <MPO_area>
61.83

>  <TPSA>
16.13

>  <logP>
1.16

$$$$

  Mrv1722703221715202D          

 25 26  0  0  0  0            999 V2000
    0.0000    0.0000    0.0000 O   0  0  0  0  0  0  0  0  0  0  0  0
   -0.0968   -0.8134    0.0000 N   0  3  0  0  0  0  0  0  0  0  0  0
    0.6584   -1.1168    0.0000 O   0  5  0  0  0  0  0  0  0  0  0  0
   -0.7553   -1.3104    0.0000 C   0  0  0  0  0  0  0  0  0  0  0  0
   -1.5235   -0.9942    0.0000 C   0  0  0  0  0  0  0  0  0  0  0  0
   -0.6520   -2.1238    0.0000 C   0  0  0  0  0  0  0  0  0  0  0  0
   -2.1820   -1.4912    0.0000 C   0  0  0  0  0  0  0  0  0  0  0  0
   -1.6397   -0.1678    0.0000 C   0  0  0  0  0  0  0  0  0  0  0  0
   -1.3104   -2.6209    0.0000 C   0  0  0  0  0  0  0  0  0  0  0  0
   -2.0786   -2.3046    0.0000 C   0  0  0  0  0  0  0  0  0  0  0  0
   -0.9942    0.3421    0.0000 C   0  0  0  0  0  0  0  0  0  0  0  0
   -2.4079    0.1485    0.0000 C   0  0  0  0  0  0  0  0  0  0  0  0
   -1.1103    1.1684    0.0000 C   0  0  0  0  0  0  0  0  0  0  0  0
   -0.2389    0.0387    0.0000 C   0  0  0  0  0  0  0  0  0  0  0  0
   -2.5240    0.9748    0.0000 C   0  0  0  0  0  0  0  0  0  0  0  0
   -3.0663   -0.3486    0.0000 C   0  0  0  0  0  0  0  0  0  0  0  0
   -1.8785    1.4848    0.0000 N   0  0  0  0  0  0  0  0  0  0  0  0
   -0.4648    1.6784    0.0000 C   0  0  0  0  0  0  0  0  0  0  0  0
   -0.0839   -0.3615    0.0000 O   0  0  0  0  0  0  0  0  0  0  0  0
    0.4067    0.5487    0.0000 O   0  0  0  0  0  0  0  0  0  0  0  0
   -3.2923    1.2911    0.0000 C   0  0  0  0  0  0  0  0  0  0  0  0
   -2.9630   -1.1620    0.0000 O   0  0  0  0  0  0  0  0  0  0  0  0
   -3.8345   -0.0323    0.0000 O   0  0  0  0  0  0  0  0  0  0  0  0
    1.1620    0.2453    0.0000 C   0  0  0  0  0  0  0  0  0  0  0  0
   -4.4930   -0.5294    0.0000 C   0  0  0  0  0  0  0  0  0  0  0  0
  1  2  2  0  0  0  0
  2  3  1  0  0  0  0
  2  4  1  0  0  0  0
  4  5  2  0  0  0  0
  4  6  1  0  0  0  0
  5  7  1  0  0  0  0
  5  8  1  0  0  0  0
  6  9  2  0  0  0  0
  7 10  2  0  0  0  0
  8 11  1  0  0  0  0
  8 12  1  0  0  0  0
 11 13  2  0  0  0  0
 11 14  1  0  0  0  0
 12 15  2  0  0  0  0
 12 16  1  0  0  0  0
 13 17  1  0  0  0  0
 13 18  1  0  0  0  0
 14 19  2  0  0  0  0
 14 20  1  0  0  0  0
 15 21  1  0  0  0  0
 16 22  2  0  0  0  0
 16 23  1  0  0  0  0
 20 24  1  0  0  0  0
 23 25  1  0  0  0  0
  9 10  1  0  0  0  0
 15 17  1  0  0  0  0
M  CHG  2   2   1   3  -1
M  END

>  <name>
Nifedipine

>  <ROTATABLE_BONDCOUNT>
6

>  <HBDScore>
0.8333333333333334

>  <dipole>
1.63

>  <logD>
1.82

>  <MPOScore>
5.241

>  <logDScore>
1.0

>  <MW>
346.339

>  <charge_dist(7.4)>
-0.00

>  <CNS>
TRUE

>  <ArRings>
1

>  <HBD>
1

>  <BALABAN_INDEX>
2.25

>  <bpKa>
-6.63

>  <TPSAScore>
0.40766666666666684

>  <MWScore>
1.0

>  <bpKaScore>
1.0

>  <logPScore>
1.0

>  <MPO_area>
76.35

>  <TPSA>
107.77

>  <logP>
1.82

$$$$

  Mrv1722703221715202D          

 20 22  0  0  0  0            999 V2000
    0.0000    0.0000    0.0000 N   0  0  0  0  0  0  0  0  0  0  0  0
   -0.7921    0.2467    0.0000 C   0  0  0  0  0  0  0  0  0  0  0  0
    0.5973    0.5648    0.0000 C   0  0  0  0  0  0  0  0  0  0  0  0
   -1.4024   -0.3052    0.0000 C   0  0  0  0  0  0  0  0  0  0  0  0
   -2.1946   -0.0584    0.0000 C   0  0  0  0  0  0  0  0  0  0  0  0
   -2.8049   -0.6103    0.0000 C   0  0  0  0  0  0  0  0  0  0  0  0
   -3.5775   -0.3052    0.0000 C   0  0  0  0  0  0  0  0  0  0  0  0
   -2.5711   -1.3895    0.0000 C   0  0  0  0  0  0  0  0  0  0  0  0
   -4.2982   -0.7077    0.0000 C   0  0  0  0  0  0  0  0  0  0  0  0
   -3.5840    0.5259    0.0000 C   0  0  0  0  0  0  0  0  0  0  0  0
   -3.0451   -2.0647    0.0000 C   0  0  0  0  0  0  0  0  0  0  0  0
   -1.7530   -1.4479    0.0000 C   0  0  0  0  0  0  0  0  0  0  0  0
   -5.0189   -0.2857    0.0000 C   0  0  0  0  0  0  0  0  0  0  0  0
   -4.4281   -1.5193    0.0000 C   0  0  0  0  0  0  0  0  0  0  0  0
   -4.3047    0.9479    0.0000 C   0  0  0  0  0  0  0  0  0  0  0  0
   -2.6945   -2.7984    0.0000 C   0  0  0  0  0  0  0  0  0  0  0  0
   -3.8762   -2.1166    0.0000 C   0  0  0  0  0  0  0  0  0  0  0  0
   -1.4024   -2.1816    0.0000 C   0  0  0  0  0  0  0  0  0  0  0  0
   -5.0254    0.5454    0.0000 C   0  0  0  0  0  0  0  0  0  0  0  0
   -1.8764   -2.8568    0.0000 C   0  0  0  0  0  0  0  0  0  0  0  0
  1  2  1  0  0  0  0
  1  3  1  0  0  0  0
  2  4  1  0  0  0  0
  4  5  1  0  0  0  0
  5  6  2  0  0  0  0
  6  7  1  0  0  0  0
  6  8  1  0  0  0  0
  7  9  2  0  0  0  0
  7 10  1  0  0  0  0
  8 11  2  0  0  0  0
  8 12  1  0  0  0  0
  9 13  1  0  0  0  0
  9 14  1  0  0  0  0
 10 15  2  0  0  0  0
 11 16  1  0  0  0  0
 11 17  1  0  0  0  0
 12 18  2  0  0  0  0
 13 19  2  0  0  0  0
 16 20  2  0  0  0  0
 14 17  1  0  0  0  0
 15 19  1  0  0  0  0
 18 20  1  0  0  0  0
M  END

>  <name>
Nortriptyline

>  <ROTATABLE_BONDCOUNT>
3

>  <HBDScore>
0.8333333333333334

>  <dipole>
0.81

>  <logD>
1.58

>  <MPOScore>
3.1183333333333336

>  <logDScore>
1.0

>  <MW>
263.384

>  <charge_dist(7.4)>
1.00

>  <CNS>
TRUE

>  <ArRings>
2

>  <HBD>
1

>  <BALABAN_INDEX>
1.57

>  <bpKa>
10.47

>  <TPSAScore>
0.0

>  <MWScore>
1.0

>  <bpKaScore>
0.0

>  <logPScore>
0.28500000000000014

>  <MPO_area>
34.51

>  <TPSA>
12.03

>  <logP>
4.43

$$$$

  Mrv1722703221715202D          

 30 34  0  0  0  0            999 V2000
    0.0000    0.0000    0.0000 O   0  0  0  0  0  0  0  0  0  0  0  0
   -0.1878    0.8092    0.0000 C   0  0  0  0  0  0  0  0  0  0  0  0
   -0.9516    1.1394    0.0000 O   0  0  0  0  0  0  0  0  0  0  0  0
    0.3431    1.4371    0.0000 C   0  0  0  0  0  0  0  0  0  0  0  0
   -0.8869    1.9680    0.0000 C   0  0  1  0  0  0  0  0  0  0  0  0
    1.1588    1.4566    0.0000 C   0  0  0  0  0  0  0  0  0  0  0  0
   -0.0841    2.1493    0.0000 C   0  0  0  0  0  0  0  0  0  0  0  0
   -1.5148    2.5118    0.0000 C   0  0  2  0  0  0  0  0  0  0  0  0
    1.5731    0.7574    0.0000 O   0  0  0  0  0  0  0  0  0  0  0  0
    1.5537    2.1816    0.0000 C   0  0  0  0  0  0  0  0  0  0  0  0
    0.3107    2.8743    0.0000 C   0  0  0  0  0  0  0  0  0  0  0  0
   -1.3660    3.3275    0.0000 N   0  0  0  0  0  0  0  0  0  0  0  0
   -2.2982    2.2529    0.0000 C   0  0  0  0  0  0  0  0  0  0  0  0
    2.3888    0.7768    0.0000 C   0  0  0  0  0  0  0  0  0  0  0  0
    2.3694    2.2011    0.0000 O   0  0  0  0  0  0  0  0  0  0  0  0
    1.1264    2.8937    0.0000 C   0  0  0  0  0  0  0  0  0  0  0  0
   -1.9939    3.8713    0.0000 C   0  0  0  0  0  0  0  0  0  0  0  0
   -0.5956    3.5994    0.0000 C   0  0  0  0  0  0  0  0  0  0  0  0
   -2.4600    1.4501    0.0000 C   0  0  0  0  0  0  0  0  0  0  0  0
   -2.9261    2.7966    0.0000 C   0  0  0  0  0  0  0  0  0  0  0  0
    2.7837    1.5019    0.0000 C   0  0  0  0  0  0  0  0  0  0  0  0
   -2.7772    3.6123    0.0000 C   0  0  0  0  0  0  0  0  0  0  0  0
   -1.8450    0.9193    0.0000 O   0  0  0  0  0  0  0  0  0  0  0  0
   -3.2433    1.1912    0.0000 C   0  0  0  0  0  0  0  0  0  0  0  0
   -3.7094    2.5377    0.0000 C   0  0  0  0  0  0  0  0  0  0  0  0
   -2.0068    0.1165    0.0000 C   0  0  0  0  0  0  0  0  0  0  0  0
   -3.5735    0.4402    0.0000 O   0  0  0  0  0  0  0  0  0  0  0  0
   -3.8713    1.7349    0.0000 C   0  0  0  0  0  0  0  0  0  0  0  0
   -4.4021    0.5179    0.0000 C   0  0  0  0  0  0  0  0  0  0  0  0
   -4.5834    1.3206    0.0000 O   0  0  0  0  0  0  0  0  0  0  0  0
  1  2  2  0  0  0  0
  2  3  1  0  0  0  0
  2  4  1  0  0  0  0
  5  3  1  6  0  0  0
  4  6  2  0  0  0  0
  4  7  1  0  0  0  0
  5  8  1  0  0  0  0
  6  9  1  0  0  0  0
  6 10  1  0  0  0  0
  7 11  2  0  0  0  0
  8 12  1  1  0  0  0
  8 13  1  0  0  0  0
  9 14  1  0  0  0  0
 10 15  1  0  0  0  0
 10 16  2  0  0  0  0
 12 17  1  0  0  0  0
 12 18  1  0  0  0  0
 13 19  2  0  0  0  0
 13 20  1  0  0  0  0
 15 21  1  0  0  0  0
 17 22  1  0  0  0  0
 19 23  1  0  0  0  0
 19 24  1  0  0  0  0
 20 25  2  0  0  0  0
 23 26  1  0  0  0  0
 24 27  1  0  0  0  0
 24 28  2  0  0  0  0
 27 29  1  0  0  0  0
 28 30  1  0  0  0  0
  5  7  1  0  0  0  0
 11 16  1  0  0  0  0
 20 22  1  0  0  0  0
 25 28  1  0  0  0  0
 29 30  1  0  0  0  0
M  END

>  <name>
Noscapine

>  <ROTATABLE_BONDCOUNT>
4

>  <HBDScore>
1.0

>  <dipole>
7.36

>  <logD>
2.39

>  <MPOScore>
5.423385714285714

>  <logDScore>
0.8049999999999999

>  <MW>
413.426

>  <charge_dist(7.4)>
0.35

>  <CNS>
TRUE

>  <ArRings>
2

>  <HBD>
0

>  <BALABAN_INDEX>
1.28

>  <bpKa>
7.14

>  <TPSAScore>
1.0

>  <MWScore>
0.6183857142857143

>  <bpKaScore>
1.0

>  <logPScore>
1.0

>  <MPO_area>
82.02

>  <TPSA>
75.69

>  <logP>
2.58

$$$$

  Mrv1722703221715202D          

 22 25  0  0  0  0            999 V2000
    0.0000    0.0000    0.0000 O   0  0  0  0  0  0  0  0  0  0  0  0
   -0.0778    0.8298    0.0000 C   0  0  0  0  0  0  0  0  0  0  0  0
    0.5899    1.3095    0.0000 C   0  0  0  0  0  0  0  0  0  0  0  0
   -0.8298    1.1799    0.0000 C   0  0  2  0  0  0  0  0  0  0  0  0
    1.3873    1.1345    0.0000 C   0  0  0  0  0  0  0  0  0  0  0  0
    0.5121    2.1393    0.0000 C   0  0  0  0  0  0  0  0  0  0  0  0
   -0.9076    2.0096    0.0000 C   0  0  0  0  0  0  0  0  0  0  0  0
   -1.5105    0.7131    0.0000 C   0  0  0  0  0  0  0  0  0  0  0  0
    1.8022    1.8476    0.0000 C   0  0  0  0  0  0  0  0  0  0  0  0
    1.7827    0.4214    0.0000 C   0  0  0  0  0  0  0  0  0  0  0  0
    1.2641    2.4699    0.0000 N   0  0  0  0  0  0  0  0  0  0  0  0
   -0.2399    2.4893    0.0000 C   0  0  0  0  0  0  0  0  0  0  0  0
   -2.2624    1.0632    0.0000 N   0  0  0  0  0  0  0  0  0  0  0  0
    2.6190    1.8411    0.0000 C   0  0  0  0  0  0  0  0  0  0  0  0
    2.5995    0.4149    0.0000 C   0  0  0  0  0  0  0  0  0  0  0  0
    1.4392    3.2802    0.0000 C   0  0  0  0  0  0  0  0  0  0  0  0
   -2.4310    1.8800    0.0000 C   0  0  0  0  0  0  0  0  0  0  0  0
   -2.9885    0.6677    0.0000 C   0  0  0  0  0  0  0  0  0  0  0  0
    3.0144    1.1280    0.0000 C   0  0  0  0  0  0  0  0  0  0  0  0
   -3.2543    1.9837    0.0000 N   0  0  0  0  0  0  0  0  0  0  0  0
   -1.8800    2.4893    0.0000 C   0  0  0  0  0  0  0  0  0  0  0  0
   -3.5979    1.2317    0.0000 C   0  0  0  0  0  0  0  0  0  0  0  0
  1  2  2  0  0  0  0
  2  3  1  0  0  0  0
  2  4  1  0  0  0  0
  3  5  1  0  0  0  0
  3  6  2  0  0  0  0
  4  7  1  0  0  0  0
  4  8  1  1  0  0  0
  5  9  2  0  0  0  0
  5 10  1  0  0  0  0
  6 11  1  0  0  0  0
  6 12  1  0  0  0  0
  8 13  1  0  0  0  0
  9 14  1  0  0  0  0
 10 15  2  0  0  0  0
 11 16  1  0  0  0  0
 13 17  1  0  0  0  0
 13 18  1  0  0  0  0
 14 19  2  0  0  0  0
 17 20  2  0  0  0  0
 17 21  1  0  0  0  0
 18 22  2  0  0  0  0
  7 12  1  0  0  0  0
  9 11  1  0  0  0  0
 15 19  1  0  0  0  0
 20 22  1  0  0  0  0
M  END

>  <name>
Ondansetron

>  <ROTATABLE_BONDCOUNT>
2

>  <HBDScore>
1.0

>  <dipole>
10.74

>  <logD>
2.11

>  <MPOScore>
5.936

>  <logDScore>
0.9450000000000001

>  <MW>
293.370

>  <charge_dist(7.4)>
0.47

>  <CNS>
TRUE

>  <ArRings>
3

>  <HBD>
0

>  <BALABAN_INDEX>
1.48

>  <bpKa>
7.34

>  <TPSAScore>
0.9910000000000001

>  <MWScore>
1.0

>  <bpKaScore>
1.0

>  <logPScore>
1.0

>  <MPO_area>
97.87

>  <TPSA>
39.82

>  <logP>
2.35

$$$$

  Mrv1722703221715202D          

 27 29  0  0  0  0            999 V2000
    0.0000    0.0000    0.0000 Cl  0  0  0  0  0  0  0  0  0  0  0  0
    0.7801    0.2685    0.0000 C   0  0  0  0  0  0  0  0  0  0  0  0
    1.3939   -0.2749    0.0000 C   0  0  0  0  0  0  0  0  0  0  0  0
    2.1740   -0.0064    0.0000 C   0  0  0  0  0  0  0  0  0  0  0  0
    2.7878   -0.5499    0.0000 C   0  0  0  0  0  0  0  0  0  0  0  0
    2.3338    0.8120    0.0000 C   0  0  0  0  0  0  0  0  0  0  0  0
    2.6151   -1.3555    0.0000 C   0  0  0  0  0  0  0  0  0  0  0  0
    3.5678   -0.2813    0.0000 C   0  0  0  0  0  0  0  0  0  0  0  0
    3.1139    1.0806    0.0000 C   0  0  0  0  0  0  0  0  0  0  0  0
    1.7072    1.3683    0.0000 C   0  0  0  0  0  0  0  0  0  0  0  0
    3.2290   -1.8990    0.0000 C   0  0  0  0  0  0  0  0  0  0  0  0
    4.1817   -0.8248    0.0000 C   0  0  0  0  0  0  0  0  0  0  0  0
    3.7277    0.5371    0.0000 C   0  0  0  0  0  0  0  0  0  0  0  0
    3.2737    1.8990    0.0000 C   0  0  0  0  0  0  0  0  0  0  0  0
    1.8671    2.1867    0.0000 C   0  0  0  0  0  0  0  0  0  0  0  0
    0.9144    1.1126    0.0000 C   0  0  0  0  0  0  0  0  0  0  0  0
    4.0090   -1.6305    0.0000 C   0  0  0  0  0  0  0  0  0  0  0  0
    4.5078    0.8057    0.0000 C   0  0  0  0  0  0  0  0  0  0  0  0
    4.0538    2.1676    0.0000 C   0  0  0  0  0  0  0  0  0  0  0  0
    1.2405    2.7430    0.0000 C   0  0  0  0  0  0  0  0  0  0  0  0
    0.2877    1.6688    0.0000 C   0  0  0  0  0  0  0  0  0  0  0  0
    4.6676    1.6241    0.0000 C   0  0  0  0  0  0  0  0  0  0  0  0
    0.4476    2.4873    0.0000 C   0  0  0  0  0  0  0  0  0  0  0  0
    5.4477    1.8926    0.0000 O   0  0  0  0  0  0  0  0  0  0  0  0
    6.0615    1.3491    0.0000 C   0  0  0  0  0  0  0  0  0  0  0  0
    6.8416    1.6177    0.0000 C   0  0  0  0  0  0  0  0  0  0  0  0
    7.4554    1.0742    0.0000 O   0  0  0  0  0  0  0  0  0  0  0  0
  1  2  1  0  0  0  0
  2  3  1  0  0  0  0
  3  4  1  0  0  0  0
  4  5  1  0  0  0  0
  4  6  2  0  0  0  0
  5  7  2  0  0  0  0
  5  8  1  0  0  0  0
  6  9  1  0  0  0  0
  6 10  1  0  0  0  0
  7 11  1  0  0  0  0
  8 12  2  0  0  0  0
  9 13  2  0  0  0  0
  9 14  1  0  0  0  0
 10 15  2  0  0  0  0
 10 16  1  0  0  0  0
 11 17  2  0  0  0  0
 13 18  1  0  0  0  0
 14 19  2  0  0  0  0
 15 20  1  0  0  0  0
 16 21  2  0  0  0  0
 18 22  2  0  0  0  0
 20 23  2  0  0  0  0
 22 24  1  0  0  0  0
 24 25  1  0  0  0  0
 25 26  1  0  0  0  0
 26 27  1  0  0  0  0
 12 17  1  0  0  0  0
 19 22  1  0  0  0  0
 21 23  1  0  0  0  0
M  END

>  <name>
Ospemifene

>  <ROTATABLE_BONDCOUNT>
8

>  <HBDScore>
0.8333333333333334

>  <dipole>
10.49

>  <logD>
5.56

>  <MPOScore>
3.171333333333334

>  <logDScore>
0.0

>  <MW>
378.90

>  <charge_dist(7.4)>
-0.00

>  <CNS>
TRUE

>  <ArRings>
3

>  <HBD>
1

>  <BALABAN_INDEX>
1.63

>  <bpKa>
-2.75

>  <TPSAScore>
0.4730000000000001

>  <MWScore>
0.8650000000000002

>  <bpKaScore>
1.0

>  <logPScore>
0.0

>  <MPO_area>
33.0

>  <TPSA>
29.46

>  <logP>
5.56

$$$$

  Mrv1722703221715202D          

 19 19  0  0  0  0            999 V2000
    0.0000    0.0000    0.0000 O   0  0  0  0  0  0  0  0  0  0  0  0
   -0.0454    0.8309    0.0000 C   0  0  0  0  0  0  0  0  0  0  0  0
   -0.7010   -0.4349    0.0000 C   0  0  0  0  0  0  0  0  0  0  0  0
   -0.7854    1.2203    0.0000 C   0  0  0  0  0  0  0  0  0  0  0  0
    0.6426    1.2787    0.0000 C   0  0  0  0  0  0  0  0  0  0  0  0
   -0.6686   -1.2528    0.0000 C   0  0  0  0  0  0  0  0  0  0  0  0
   -1.4865    0.7854    0.0000 O   0  0  0  0  0  0  0  0  0  0  0  0
   -0.8309    2.0512    0.0000 C   0  0  0  0  0  0  0  0  0  0  0  0
    0.5972    2.1096    0.0000 C   0  0  0  0  0  0  0  0  0  0  0  0
   -1.3696   -1.6877    0.0000 C   0  0  0  0  0  0  0  0  0  0  0  0
   -2.2264    1.1749    0.0000 C   0  0  0  0  0  0  0  0  0  0  0  0
   -0.1428    2.4991    0.0000 C   0  0  0  0  0  0  0  0  0  0  0  0
   -2.9275    0.7400    0.0000 C   0  0  1  0  0  0  0  0  0  0  0  0
   -2.8950   -0.0779    0.0000 O   0  0  0  0  0  0  0  0  0  0  0  0
   -3.6675    1.1295    0.0000 C   0  0  0  0  0  0  0  0  0  0  0  0
   -4.3684    0.6945    0.0000 N   0  0  0  0  0  0  0  0  0  0  0  0
   -5.1084    1.0840    0.0000 C   0  0  0  0  0  0  0  0  0  0  0  0
   -5.8095    0.6491    0.0000 C   0  0  0  0  0  0  0  0  0  0  0  0
   -5.1539    1.9149    0.0000 C   0  0  0  0  0  0  0  0  0  0  0  0
  1  2  1  0  0  0  0
  1  3  1  0  0  0  0
  2  4  2  0  0  0  0
  2  5  1  0  0  0  0
  3  6  1  0  0  0  0
  4  7  1  0  0  0  0
  4  8  1  0  0  0  0
  5  9  2  0  0  0  0
  6 10  2  0  0  0  0
  7 11  1  0  0  0  0
  8 12  2  0  0  0  0
 11 13  1  0  0  0  0
 13 14  1  1  0  0  0
 13 15  1  0  0  0  0
 15 16  1  0  0  0  0
 16 17  1  0  0  0  0
 17 18  1  0  0  0  0
 17 19  1  0  0  0  0
  9 12  1  0  0  0  0
M  END

>  <name>
Oxprenolol

>  <ROTATABLE_BONDCOUNT>
9

>  <HBDScore>
0.5

>  <dipole>
2.69

>  <logD>
-0.06

>  <MPOScore>
4.665

>  <logDScore>
1.0

>  <MW>
265.353

>  <charge_dist(7.4)>
0.99

>  <CNS>
TRUE

>  <ArRings>
1

>  <HBD>
2

>  <BALABAN_INDEX>
2.12

>  <bpKa>
9.67

>  <TPSAScore>
1.0

>  <MWScore>
1.0

>  <bpKaScore>
0.16500000000000004

>  <logPScore>
1.0

>  <MPO_area>
62.46

>  <TPSA>
50.72

>  <logP>
2.17

$$$$

  Mrv1722703221715202D          

  7  6  0  0  0  0            999 V2000
    0.0000    0.0000    0.0000 O   0  0  0  0  0  0  0  0  0  0  0  0
   -0.6854   -0.4420    0.0000 C   0  0  0  0  0  0  0  0  0  0  0  0
   -0.6470   -1.2490    0.0000 O   0  0  0  0  0  0  0  0  0  0  0  0
   -1.4220   -0.0705    0.0000 C   0  0  0  0  0  0  0  0  0  0  0  0
   -2.1074   -0.5124    0.0000 C   0  0  0  0  0  0  0  0  0  0  0  0
   -2.8440   -0.1409    0.0000 C   0  0  0  0  0  0  0  0  0  0  0  0
   -3.5294   -0.5829    0.0000 O   0  0  0  0  0  0  0  0  0  0  0  0
  1  2  2  0  0  0  0
  2  3  1  0  0  0  0
  2  4  1  0  0  0  0
  4  5  1  0  0  0  0
  5  6  1  0  0  0  0
  6  7  1  0  0  0  0
M  END

>  <name>
Oxybate

>  <ROTATABLE_BONDCOUNT>
3

>  <HBDScore>
0.5

>  <dipole>
2.78

>  <logD>
-3.37

>  <MPOScore>
5.5

>  <logDScore>
1.0

>  <MW>
104.105

>  <charge_dist(7.4)>
-1.00

>  <CNS>
TRUE

>  <ArRings>
0

>  <HBD>
2

>  <BALABAN_INDEX>
2.68

>  <bpKa>
-2.38

>  <TPSAScore>
1.0

>  <MWScore>
1.0

>  <bpKaScore>
1.0

>  <logPScore>
1.0

>  <MPO_area>
83.33

>  <TPSA>
57.53

>  <logP>
-0.51

$$$$

  Mrv1722703221715202D          

 26 27  0  0  0  0            999 V2000
    0.0000    0.0000    0.0000 O   0  0  0  0  0  0  0  0  0  0  0  0
   -0.1411    0.8206    0.0000 C   0  0  0  0  0  0  0  0  0  0  0  0
   -0.9231    1.1155    0.0000 O   0  0  0  0  0  0  0  0  0  0  0  0
    0.4872    1.3527    0.0000 C   0  0  2  0  0  0  0  0  0  0  0  0
   -1.5642    0.5962    0.0000 C   0  0  0  0  0  0  0  0  0  0  0  0
    1.1155    1.8847    0.0000 O   0  0  0  0  0  0  0  0  0  0  0  0
    1.0065    0.7244    0.0000 C   0  0  0  0  0  0  0  0  0  0  0  0
   -0.0449    1.9937    0.0000 C   0  0  0  0  0  0  0  0  0  0  0  0
   -2.3463    0.8911    0.0000 C   0  0  0  0  0  0  0  0  0  0  0  0
    0.7116   -0.0449    0.0000 C   0  0  0  0  0  0  0  0  0  0  0  0
    1.8142    0.8655    0.0000 C   0  0  0  0  0  0  0  0  0  0  0  0
    0.2372    2.7758    0.0000 C   0  0  0  0  0  0  0  0  0  0  0  0
   -0.8655    1.8655    0.0000 C   0  0  0  0  0  0  0  0  0  0  0  0
   -3.1284    1.1860    0.0000 C   0  0  0  0  0  0  0  0  0  0  0  0
    1.2309   -0.6731    0.0000 C   0  0  0  0  0  0  0  0  0  0  0  0
    2.3335    0.2372    0.0000 C   0  0  0  0  0  0  0  0  0  0  0  0
   -0.2949    3.4169    0.0000 C   0  0  0  0  0  0  0  0  0  0  0  0
   -1.3975    2.5066    0.0000 C   0  0  0  0  0  0  0  0  0  0  0  0
   -3.9106    1.4809    0.0000 C   0  0  0  0  0  0  0  0  0  0  0  0
    2.0386   -0.5321    0.0000 C   0  0  0  0  0  0  0  0  0  0  0  0
   -1.1155    3.2887    0.0000 C   0  0  0  0  0  0  0  0  0  0  0  0
   -4.5516    0.9616    0.0000 N   0  0  0  0  0  0  0  0  0  0  0  0
   -5.3337    1.2565    0.0000 C   0  0  0  0  0  0  0  0  0  0  0  0
   -4.4234    0.1538    0.0000 C   0  0  0  0  0  0  0  0  0  0  0  0
   -5.9748    0.7372    0.0000 C   0  0  0  0  0  0  0  0  0  0  0  0
   -5.0644   -0.3654    0.0000 C   0  0  0  0  0  0  0  0  0  0  0  0
  1  2  2  0  0  0  0
  2  3  1  0  0  0  0
  4  2  1  6  0  0  0
  3  5  1  0  0  0  0
  4  6  1  0  0  0  0
  4  7  1  0  0  0  0
  4  8  1  0  0  0  0
  5  9  1  0  0  0  0
  7 10  2  0  0  0  0
  7 11  1  0  0  0  0
  8 12  1  0  0  0  0
  8 13  1  0  0  0  0
  9 14  3  0  0  0  0
 10 15  1  0  0  0  0
 11 16  2  0  0  0  0
 12 17  1  0  0  0  0
 13 18  1  0  0  0  0
 14 19  1  0  0  0  0
 15 20  2  0  0  0  0
 17 21  1  0  0  0  0
 19 22  1  0  0  0  0
 22 23  1  0  0  0  0
 22 24  1  0  0  0  0
 23 25  1  0  0  0  0
 24 26  1  0  0  0  0
 16 20  1  0  0  0  0
 18 21  1  0  0  0  0
M  END

>  <name>
Oxybutynin

>  <ROTATABLE_BONDCOUNT>
10

>  <HBDScore>
0.8333333333333334

>  <dipole>
0.94

>  <logD>
3.06

>  <MPOScore>
4.198333333333334

>  <logDScore>
0.47

>  <MW>
357.494

>  <charge_dist(7.4)>
0.96

>  <CNS>
TRUE

>  <ArRings>
1

>  <HBD>
1

>  <BALABAN_INDEX>
1.87

>  <bpKa>
8.77

>  <TPSAScore>
1.0

>  <MWScore>
1.0

>  <bpKaScore>
0.6150000000000002

>  <logPScore>
0.2799999999999998

>  <MPO_area>
50.77

>  <TPSA>
49.77

>  <logP>
4.44

$$$$

  Mrv1722703221715202D          

 25 27  0  0  0  0            999 V2000
    0.0000    0.0000    0.0000 O   0  0  0  0  0  0  0  0  0  0  0  0
   -0.2736    0.7827    0.0000 C   0  0  0  0  0  0  0  0  0  0  0  0
   -1.0881    0.9418    0.0000 O   0  0  0  0  0  0  0  0  0  0  0  0
    0.2609    1.4126    0.0000 C   0  0  2  0  0  0  0  0  0  0  0  0
   -1.6353    0.3245    0.0000 C   0  0  0  0  0  0  0  0  0  0  0  0
    0.7954    2.0426    0.0000 O   0  0  0  0  0  0  0  0  0  0  0  0
    0.8781    0.8781    0.0000 C   0  0  0  0  0  0  0  0  0  0  0  0
   -0.3691    1.9599    0.0000 C   0  0  0  0  0  0  0  0  0  0  0  0
   -2.4498    0.4836    0.0000 C   0  0  0  0  0  0  0  0  0  0  0  0
    1.6481    1.1517    0.0000 C   0  0  0  0  0  0  0  0  0  0  0  0
    0.7190    0.0763    0.0000 C   0  0  0  0  0  0  0  0  0  0  0  0
   -0.2227    2.7744    0.0000 C   0  0  0  0  0  0  0  0  0  0  0  0
   -1.1517    1.6990    0.0000 C   0  0  0  0  0  0  0  0  0  0  0  0
   -2.7234    1.2662    0.0000 N   0  0  0  0  0  0  0  0  0  0  0  0
   -2.9970   -0.1336    0.0000 N   0  0  0  0  0  0  0  0  0  0  0  0
    2.2653    0.6172    0.0000 C   0  0  0  0  0  0  0  0  0  0  0  0
    1.3363   -0.4581    0.0000 C   0  0  0  0  0  0  0  0  0  0  0  0
   -0.8527    3.3216    0.0000 C   0  0  0  0  0  0  0  0  0  0  0  0
   -1.7817    2.2462    0.0000 C   0  0  0  0  0  0  0  0  0  0  0  0
   -3.5379    1.4253    0.0000 C   0  0  0  0  0  0  0  0  0  0  0  0
   -3.8115    0.0255    0.0000 C   0  0  0  0  0  0  0  0  0  0  0  0
   -2.7361   -0.9036    0.0000 C   0  0  0  0  0  0  0  0  0  0  0  0
    2.1062   -0.1845    0.0000 C   0  0  0  0  0  0  0  0  0  0  0  0
   -1.6353    3.0607    0.0000 C   0  0  0  0  0  0  0  0  0  0  0  0
   -4.0852    0.8081    0.0000 C   0  0  0  0  0  0  0  0  0  0  0  0
  1  2  2  0  0  0  0
  2  3  1  0  0  0  0
  2  4  1  0  0  0  0
  3  5  1  0  0  0  0
  4  6  1  6  0  0  0
  4  7  1  0  0  0  0
  4  8  1  0  0  0  0
  5  9  1  0  0  0  0
  7 10  2  0  0  0  0
  7 11  1  0  0  0  0
  8 12  1  0  0  0  0
  8 13  1  0  0  0  0
  9 14  2  0  0  0  0
  9 15  1  0  0  0  0
 10 16  1  0  0  0  0
 11 17  2  0  0  0  0
 12 18  1  0  0  0  0
 13 19  1  0  0  0  0
 14 20  1  0  0  0  0
 15 21  1  0  0  0  0
 15 22  1  0  0  0  0
 16 23  2  0  0  0  0
 18 24  1  0  0  0  0
 20 25  1  0  0  0  0
 17 23  1  0  0  0  0
 19 24  1  0  0  0  0
 21 25  1  0  0  0  0
M  END

>  <name>
Oxyphencyclimine

>  <ROTATABLE_BONDCOUNT>
6

>  <HBDScore>
0.8333333333333334

>  <dipole>
4.70

>  <logD>
0.86

>  <MPOScore>
5.198333333333333

>  <logDScore>
1.0

>  <MW>
344.455

>  <charge_dist(7.4)>
0.99

>  <CNS>
TRUE

>  <ArRings>
1

>  <HBD>
1

>  <BALABAN_INDEX>
1.47

>  <bpKa>
9.27

>  <TPSAScore>
1.0

>  <MWScore>
1.0

>  <bpKaScore>
0.3650000000000002

>  <logPScore>
1.0

>  <MPO_area>
75.04

>  <TPSA>
62.13

>  <logP>
2.62

$$$$

  Mrv1722703221715202D          

 22 26  0  0  0  0            999 V2000
    0.0000    0.0000    0.0000 O   0  0  0  0  0  0  0  0  0  0  0  0
    0.4045    0.7190    0.0000 C   0  0  0  0  0  0  0  0  0  0  0  0
   -0.0112    1.4381    0.0000 N   0  0  0  0  0  0  0  0  0  0  0  0
    1.2134    0.7190    0.0000 C   0  0  0  0  0  0  0  0  0  0  0  0
   -1.4494    1.1572    0.0000 C   0  0  2  0  0  0  0  0  0  0  0  0
    0.3933    2.1572    0.0000 C   0  0  0  0  0  0  0  0  0  0  0  0
    1.6179    1.4381    0.0000 C   0  0  0  0  0  0  0  0  0  0  0  0
    1.6066    0.0225    0.0000 C   0  0  0  0  0  0  0  0  0  0  0  0
   -1.2583    0.7640    0.0000 C   0  0  0  0  0  0  0  0  0  0  0  0
   -1.8201    1.8089    0.0000 C   0  0  0  0  0  0  0  0  0  0  0  0
    1.2021    2.1572    0.0000 C   0  0  1  0  0  0  0  0  0  0  0  0
    2.4268    1.4381    0.0000 C   0  0  0  0  0  0  0  0  0  0  0  0
    2.4156    0.0225    0.0000 C   0  0  0  0  0  0  0  0  0  0  0  0
   -2.0898    0.7865    0.0000 C   0  0  0  0  0  0  0  0  0  0  0  0
   -0.8539    1.4831    0.0000 C   0  0  0  0  0  0  0  0  0  0  0  0
   -2.0785    2.1909    0.0000 N   0  0  0  0  0  0  0  0  0  0  0  0
    1.6066    2.8762    0.0000 C   0  0  0  0  0  0  0  0  0  0  0  0
    2.8200    0.7415    0.0000 C   0  0  0  0  0  0  0  0  0  0  0  0
    2.8313    2.1572    0.0000 C   0  0  0  0  0  0  0  0  0  0  0  0
   -2.5055    1.5055    0.0000 C   0  0  0  0  0  0  0  0  0  0  0  0
   -1.2696    2.2021    0.0000 C   0  0  0  0  0  0  0  0  0  0  0  0
    2.4156    2.8762    0.0000 C   0  0  0  0  0  0  0  0  0  0  0  0
  1  2  2  0  0  0  0
  2  3  1  0  0  0  0
  2  4  1  0  0  0  0
  3  5  1  0  0  0  0
  3  6  1  0  0  0  0
  4  7  2  0  0  0  0
  4  8  1  0  0  0  0
  5  9  1  6  0  0  0
  5 10  1  0  0  0  0
 11  6  1  6  0  0  0
  7 12  1  0  0  0  0
  8 13  2  0  0  0  0
  9 14  1  0  0  0  0
  9 15  1  0  0  0  0
 10 16  1  0  0  0  0
 11 17  1  0  0  0  0
 12 18  2  0  0  0  0
 12 19  1  0  0  0  0
 14 20  1  0  0  0  0
 15 21  1  0  0  0  0
 17 22  1  0  0  0  0
  7 11  1  0  0  0  0
 13 18  1  0  0  0  0
 16 20  1  0  0  0  0
 16 21  1  0  0  0  0
 19 22  1  0  0  0  0
M  END

>  <name>
Palonosetron

>  <ROTATABLE_BONDCOUNT>
1

>  <HBDScore>
1.0

>  <dipole>
8.34

>  <logD>
1.87

>  <MPOScore>
5.1775

>  <logDScore>
1.0

>  <MW>
296.414

>  <charge_dist(7.4)>
0.79

>  <CNS>
TRUE

>  <ArRings>
1

>  <HBD>
0

>  <BALABAN_INDEX>
1.29

>  <bpKa>
7.97

>  <TPSAScore>
0.17750000000000005

>  <MWScore>
1.0

>  <bpKaScore>
1.0

>  <logPScore>
1.0

>  <MPO_area>
72.58

>  <TPSA>
23.55

>  <logP>
2.55

$$$$

  Mrv1722703221715202D          

 26 28  0  0  0  0            999 V2000
    0.0000    0.0000    0.0000 O   0  0  0  0  0  0  0  0  0  0  0  0
    0.1376    0.8254    0.0000 C   0  0  0  0  0  0  0  0  0  0  0  0
   -0.5044    1.3692    0.0000 N   0  0  0  0  0  0  0  0  0  0  0  0
    0.9106    1.1137    0.0000 C   0  0  0  0  0  0  0  0  0  0  0  0
   -1.2905    1.0940    0.0000 O   0  0  0  0  0  0  0  0  0  0  0  0
    1.5395    0.5830    0.0000 C   0  0  0  0  0  0  0  0  0  0  0  0
    2.3125    0.8713    0.0000 C   0  0  0  0  0  0  0  0  0  0  0  0
    2.4500    1.6967    0.0000 C   0  0  0  0  0  0  0  0  0  0  0  0
    2.9413    0.3406    0.0000 C   0  0  0  0  0  0  0  0  0  0  0  0
    3.2230    1.9849    0.0000 C   0  0  0  0  0  0  0  0  0  0  0  0
    3.7143    0.6289    0.0000 C   0  0  0  0  0  0  0  0  0  0  0  0
    3.8519    1.4543    0.0000 C   0  0  0  0  0  0  0  0  0  0  0  0
    4.6249    1.7426    0.0000 C   0  0  0  0  0  0  0  0  0  0  0  0
    5.2538    1.2119    0.0000 N   0  0  0  0  0  0  0  0  0  0  0  0
    6.0268    1.5002    0.0000 C   0  0  0  0  0  0  0  0  0  0  0  0
    6.6557    0.9696    0.0000 C   0  0  0  0  0  0  0  0  0  0  0  0
    7.4288    1.2578    0.0000 C   0  0  0  0  0  0  0  0  0  0  0  0
    8.1100    0.7992    0.0000 C   0  0  0  0  0  0  0  0  0  0  0  0
    7.6515    2.0636    0.0000 C   0  0  0  0  0  0  0  0  0  0  0  0
    8.7586    1.3167    0.0000 C   0  0  0  0  0  0  0  0  0  0  0  0
    8.2148   -0.0197    0.0000 C   0  0  0  0  0  0  0  0  0  0  0  0
    8.4769    2.0963    0.0000 N   0  0  0  0  0  2  0  0  0  0  0  0
    7.1339    2.7252    0.0000 C   0  0  0  0  0  0  0  0  0  0  0  0
    9.5250    1.0089    0.0000 C   0  0  0  0  0  0  0  0  0  0  0  0
    8.9813   -0.3276    0.0000 C   0  0  0  0  0  0  0  0  0  0  0  0
    9.6298    0.1900    0.0000 C   0  0  0  0  0  0  0  0  0  0  0  0
  1  2  2  0  0  0  0
  2  3  1  0  0  0  0
  2  4  1  0  0  0  0
  3  5  1  0  0  0  0
  4  6  2  0  0  0  0
  6  7  1  0  0  0  0
  7  8  2  0  0  0  0
  7  9  1  0  0  0  0
  8 10  1  0  0  0  0
  9 11  2  0  0  0  0
 10 12  2  0  0  0  0
 12 13  1  0  0  0  0
 13 14  1  0  0  0  0
 14 15  1  0  0  0  0
 15 16  1  0  0  0  0
 16 17  1  0  0  0  0
 17 18  1  0  0  0  0
 17 19  2  0  0  0  0
 18 20  2  0  0  0  0
 18 21  1  0  0  0  0
 19 22  1  0  0  0  0
 19 23  1  0  0  0  0
 20 24  1  0  0  0  0
 21 25  2  0  0  0  0
 24 26  2  0  0  0  0
 11 12  1  0  0  0  0
 20 22  1  0  0  0  0
 25 26  1  0  0  0  0
M  RAD  1  22   2
M  END

>  <name>
Panobinostat

>  <ROTATABLE_BONDCOUNT>
7

>  <HBDScore>
0.16666666666666674

>  <logD>
0.82

>  <MPOScore>
4.556666666666667

>  <logDScore>
1.0

>  <MW>
348.426

>  <charge_dist(7.4)>
0.98

>  <CNS>
TRUE

>  <ArRings>
3

>  <HBD>
3

>  <BALABAN_INDEX>
1.27

>  <bpKa>
9.22

>  <TPSAScore>
1.0

>  <MWScore>
1.0

>  <bpKaScore>
0.3899999999999997

>  <logPScore>
1.0

>  <MPO_area>
60.36

>  <TPSA>
74.25

>  <logP>
2.19

$$$$

  Mrv1722703221715202D          

 11 11  0  0  0  0            999 V2000
    0.0000    0.0000    0.0000 O   0  0  0  0  0  0  0  0  0  0  0  0
   -0.4204   -0.7115    0.0000 C   0  0  0  0  0  0  0  0  0  0  0  0
   -1.2484   -0.7956    0.0000 O   0  0  0  0  0  0  0  0  0  0  0  0
   -0.0906   -1.4619    0.0000 N   0  0  0  0  0  0  0  0  0  0  0  0
   -1.4231   -1.5977    0.0000 C   0  0  2  0  0  0  0  0  0  0  0  0
   -0.7115   -2.0117    0.0000 C   0  0  0  0  0  0  0  0  0  0  0  0
    0.7115   -1.6236    0.0000 C   0  0  0  0  0  0  0  0  0  0  0  0
   -2.2187   -1.3390    0.0000 C   0  0  0  0  0  0  0  0  0  0  0  0
   -1.7659   -2.3481    0.0000 C   0  0  0  0  0  0  0  0  0  0  0  0
   -0.6274   -2.8267    0.0000 O   0  0  0  0  0  0  0  0  0  0  0  0
   -2.3998   -0.5240    0.0000 C   0  0  0  0  0  0  0  0  0  0  0  0
  1  2  2  0  0  0  0
  2  3  1  0  0  0  0
  2  4  1  0  0  0  0
  3  5  1  0  0  0  0
  4  6  1  0  0  0  0
  4  7  1  0  0  0  0
  5  8  1  0  0  0  0
  5  9  1  1  0  0  0
  6 10  2  0  0  0  0
  8 11  1  0  0  0  0
  5  6  1  0  0  0  0
M  END

>  <name>
Paramethadione

>  <ROTATABLE_BONDCOUNT>
1

>  <HBDScore>
1.0

>  <dipole>
1.38

>  <logD>
1.03

>  <MPOScore>
6.0

>  <logDScore>
1.0

>  <MW>
157.169

>  <charge_dist(7.4)>
0.00

>  <CNS>
TRUE

>  <ArRings>
0

>  <HBD>
0

>  <BALABAN_INDEX>
2.48

>  <bpKa>
0.0

>  <TPSAScore>
1.0

>  <MWScore>
1.0

>  <bpKaScore>
1.0

>  <logPScore>
1.0

>  <MPO_area>
100.0

>  <TPSA>
46.61

>  <logP>
1.03

$$$$

  Mrv1722703221715202D          

 24 27  0  0  0  0            999 V2000
    0.0000    0.0000    0.0000 F   0  0  0  0  0  0  0  0  0  0  0  0
    0.1031    0.8185    0.0000 C   0  0  0  0  0  0  0  0  0  0  0  0
    0.8572    1.1343    0.0000 C   0  0  0  0  0  0  0  0  0  0  0  0
   -0.5478    1.3277    0.0000 C   0  0  0  0  0  0  0  0  0  0  0  0
    0.9603    1.9528    0.0000 C   0  0  0  0  0  0  0  0  0  0  0  0
   -0.4447    2.1462    0.0000 C   0  0  0  0  0  0  0  0  0  0  0  0
    0.3093    2.4620    0.0000 C   0  0  0  0  0  0  0  0  0  0  0  0
    0.4125    3.2805    0.0000 C   0  0  2  0  0  0  0  0  0  0  0  0
   -0.2385    3.7896    0.0000 C   0  0  2  0  0  0  0  0  0  0  0  0
    1.1666    3.5963    0.0000 C   0  0  0  0  0  0  0  0  0  0  0  0
   -0.1353    4.6082    0.0000 C   0  0  0  0  0  0  0  0  0  0  0  0
   -1.0054    3.4868    0.0000 C   0  0  0  0  0  0  0  0  0  0  0  0
    1.2697    4.4149    0.0000 C   0  0  0  0  0  0  0  0  0  0  0  0
    0.6187    4.9240    0.0000 N   0  0  0  0  0  0  0  0  0  0  0  0
   -1.6564    3.9959    0.0000 O   0  0  0  0  0  0  0  0  0  0  0  0
   -2.4233    3.6930    0.0000 C   0  0  0  0  0  0  0  0  0  0  0  0
   -2.5393    2.8873    0.0000 C   0  0  0  0  0  0  0  0  0  0  0  0
   -3.0743    4.2022    0.0000 C   0  0  0  0  0  0  0  0  0  0  0  0
   -3.3063    2.5845    0.0000 C   0  0  0  0  0  0  0  0  0  0  0  0
   -3.8412    3.8992    0.0000 C   0  0  0  0  0  0  0  0  0  0  0  0
   -3.5898    1.8175    0.0000 O   0  0  0  0  0  0  0  0  0  0  0  0
   -3.9572    3.0936    0.0000 C   0  0  0  0  0  0  0  0  0  0  0  0
   -4.4149    1.8497    0.0000 C   0  0  0  0  0  0  0  0  0  0  0  0
   -4.6404    2.6425    0.0000 O   0  0  0  0  0  0  0  0  0  0  0  0
  1  2  1  0  0  0  0
  2  3  2  0  0  0  0
  2  4  1  0  0  0  0
  3  5  1  0  0  0  0
  4  6  2  0  0  0  0
  5  7  2  0  0  0  0
  8  7  1  6  0  0  0
  8  9  1  0  0  0  0
  8 10  1  0  0  0  0
  9 11  1  0  0  0  0
  9 12  1  1  0  0  0
 10 13  1  0  0  0  0
 11 14  1  0  0  0  0
 12 15  1  0  0  0  0
 15 16  1  0  0  0  0
 16 17  2  0  0  0  0
 16 18  1  0  0  0  0
 17 19  1  0  0  0  0
 18 20  2  0  0  0  0
 19 21  1  0  0  0  0
 19 22  2  0  0  0  0
 21 23  1  0  0  0  0
 22 24  1  0  0  0  0
  6  7  1  0  0  0  0
 13 14  1  0  0  0  0
 20 22  1  0  0  0  0
 23 24  1  0  0  0  0
M  END

>  <name>
Paroxetine

>  <ROTATABLE_BONDCOUNT>
4

>  <HBDScore>
0.8333333333333334

>  <dipole>
2.47

>  <logD>
0.83

>  <MPOScore>
4.859333333333334

>  <logDScore>
1.0

>  <MW>
329.371

>  <charge_dist(7.4)>
1.00

>  <CNS>
TRUE

>  <ArRings>
2

>  <HBD>
1

>  <BALABAN_INDEX>
1.18

>  <bpKa>
9.77

>  <TPSAScore>
0.986

>  <MWScore>
1.0

>  <bpKaScore>
0.11500000000000021

>  <logPScore>
0.925

>  <MPO_area>
64.66

>  <TPSA>
39.72

>  <logP>
3.15

$$$$

  Mrv1722703221715202D          

 31 34  0  0  0  0            999 V2000
    0.0000    0.0000    0.0000 S   0  0  0  0  0  0  0  0  0  0  0  0
    0.0393    0.8372    0.0000 O   0  0  0  0  0  0  0  0  0  0  0  0
   -0.0523   -0.8241    0.0000 O   0  0  0  0  0  0  0  0  0  0  0  0
   -0.8372    0.0523    0.0000 N   0  0  0  0  0  0  0  0  0  0  0  0
    0.8241   -0.0393    0.0000 C   0  0  0  0  0  0  0  0  0  0  0  0
    1.2688    0.6671    0.0000 C   0  0  0  0  0  0  0  0  0  0  0  0
    1.1969   -0.7718    0.0000 C   0  0  0  0  0  0  0  0  0  0  0  0
    2.0929    0.6279    0.0000 C   0  0  0  0  0  0  0  0  0  0  0  0
    0.8829    1.4127    0.0000 C   0  0  0  0  0  0  0  0  0  0  0  0
    2.0210   -0.8110    0.0000 C   0  0  0  0  0  0  0  0  0  0  0  0
    2.4657   -0.1047    0.0000 C   0  0  0  0  0  0  0  0  0  0  0  0
    2.3938   -1.5435    0.0000 N   0  0  0  0  0  0  0  0  0  0  0  0
    3.2178   -1.5827    0.0000 C   0  0  0  0  0  0  0  0  0  0  0  0
    3.6626   -0.8764    0.0000 N   0  0  0  0  0  0  0  0  0  0  0  0
    3.5906   -2.3152    0.0000 N   0  0  0  0  0  0  0  0  0  0  0  0
    4.4866   -0.9156    0.0000 C   0  0  0  0  0  0  0  0  0  0  0  0
    4.4147   -2.3545    0.0000 C   0  0  0  0  0  0  0  0  0  0  0  0
    4.9314   -0.2093    0.0000 N   0  0  0  0  0  0  0  0  0  0  0  0
    4.8595   -1.6482    0.0000 C   0  0  0  0  0  0  0  0  0  0  0  0
    5.7555   -0.2485    0.0000 C   0  0  0  0  0  0  0  0  0  0  0  0
    4.5455    0.5363    0.0000 C   0  0  0  0  0  0  0  0  0  0  0  0
    6.2002    0.4578    0.0000 C   0  0  0  0  0  0  0  0  0  0  0  0
    6.1283   -0.9811    0.0000 C   0  0  0  0  0  0  0  0  0  0  0  0
    7.0243    0.4186    0.0000 C   0  0  0  0  0  0  0  0  0  0  0  0
    6.9524   -1.0203    0.0000 C   0  0  0  0  0  0  0  0  0  0  0  0
    7.6064    1.0138    0.0000 N   0  0  0  0  0  0  0  0  0  0  0  0
    7.3971   -0.3140    0.0000 C   0  0  0  0  0  0  0  0  0  0  0  0
    8.3389    0.6409    0.0000 N   0  0  0  0  0  0  0  0  0  0  0  0
    8.2146   -0.1766    0.0000 C   0  0  0  0  0  0  0  0  0  0  0  0
    9.0714    1.0269    0.0000 C   0  0  0  0  0  0  0  0  0  0  0  0
    8.7967   -0.7587    0.0000 C   0  0  0  0  0  0  0  0  0  0  0  0
  1  2  2  0  0  0  0
  1  3  2  0  0  0  0
  1  4  1  0  0  0  0
  1  5  1  0  0  0  0
  5  6  2  0  0  0  0
  5  7  1  0  0  0  0
  6  8  1  0  0  0  0
  6  9  1  0  0  0  0
  7 10  2  0  0  0  0
  8 11  2  0  0  0  0
 10 12  1  0  0  0  0
 12 13  1  0  0  0  0
 13 14  2  0  0  0  0
 13 15  1  0  0  0  0
 14 16  1  0  0  0  0
 15 17  2  0  0  0  0
 16 18  1  0  0  0  0
 16 19  2  0  0  0  0
 18 20  1  0  0  0  0
 18 21  1  0  0  0  0
 20 22  2  0  0  0  0
 20 23  1  0  0  0  0
 22 24  1  0  0  0  0
 23 25  2  0  0  0  0
 24 26  2  0  0  0  0
 24 27  1  0  0  0  0
 26 28  1  0  0  0  0
 27 29  2  0  0  0  0
 28 30  1  0  0  0  0
 29 31  1  0  0  0  0
 10 11  1  0  0  0  0
 17 19  1  0  0  0  0
 25 27  1  0  0  0  0
 28 29  1  0  0  0  0
M  END

>  <name>
Pazopanib

>  <ROTATABLE_BONDCOUNT>
5

>  <HBDScore>
0.5

>  <dipole>
9.73

>  <logD>
3.55

>  <MPOScore>
2.928619047619048

>  <logDScore>
0.2250000000000001

>  <MW>
437.52

>  <charge_dist(7.4)>
-0.00

>  <CNS>
TRUE

>  <ArRings>
4

>  <HBD>
2

>  <BALABAN_INDEX>
1.14

>  <bpKa>
4.36

>  <TPSAScore>
0.032333333333333325

>  <MWScore>
0.4462857142857144

>  <bpKaScore>
1.0

>  <logPScore>
0.7250000000000001

>  <MPO_area>
24.18

>  <TPSA>
119.03

>  <logP>
3.55

$$$$

  Mrv1722703221715202D          

 21 22  0  0  0  0            999 V2000
    0.0000    0.0000    0.0000 O   0  0  0  0  0  0  0  0  0  0  0  0
    0.6411    0.5193    0.0000 C   0  0  0  0  0  0  0  0  0  0  0  0
   -0.7693    0.3077    0.0000 C   0  0  0  0  0  0  0  0  0  0  0  0
    1.3975    0.2244    0.0000 C   0  0  0  0  0  0  0  0  0  0  0  0
    0.5128    1.3398    0.0000 C   0  0  0  0  0  0  0  0  0  0  0  0
   -1.4232   -0.1988    0.0000 C   0  0  1  0  0  0  0  0  0  0  0  0
    2.0386    0.7436    0.0000 C   0  0  0  0  0  0  0  0  0  0  0  0
    1.5129   -0.5834    0.0000 C   0  0  0  0  0  0  0  0  0  0  0  0
    1.1539    1.8591    0.0000 C   0  0  0  0  0  0  0  0  0  0  0  0
   -1.3078   -1.0065    0.0000 O   0  0  0  0  0  0  0  0  0  0  0  0
   -2.1925    0.1090    0.0000 C   0  0  0  0  0  0  0  0  0  0  0  0
    1.9104    1.5642    0.0000 C   0  0  0  0  0  0  0  0  0  0  0  0
    2.2374   -0.9552    0.0000 C   0  0  0  0  0  0  0  0  0  0  0  0
    0.9167   -1.1539    0.0000 C   0  0  0  0  0  0  0  0  0  0  0  0
   -2.8464   -0.3975    0.0000 N   0  0  0  0  0  0  0  0  0  0  0  0
    2.0963   -1.7629    0.0000 C   0  0  0  0  0  0  0  0  0  0  0  0
    1.2757   -1.8847    0.0000 C   0  0  0  0  0  0  0  0  0  0  0  0
   -3.6156   -0.0898    0.0000 C   0  0  0  0  0  0  0  0  0  0  0  0
   -3.9234   -0.8462    0.0000 C   0  0  0  0  0  0  0  0  0  0  0  0
   -3.3207    0.6796    0.0000 C   0  0  0  0  0  0  0  0  0  0  0  0
   -4.3849    0.2180    0.0000 C   0  0  0  0  0  0  0  0  0  0  0  0
  1  2  1  0  0  0  0
  1  3  1  0  0  0  0
  2  4  2  0  0  0  0
  2  5  1  0  0  0  0
  3  6  1  0  0  0  0
  4  7  1  0  0  0  0
  4  8  1  0  0  0  0
  5  9  2  0  0  0  0
  6 10  1  1  0  0  0
  6 11  1  0  0  0  0
  7 12  2  0  0  0  0
  8 13  1  0  0  0  0
  8 14  1  0  0  0  0
 11 15  1  0  0  0  0
 13 16  1  0  0  0  0
 14 17  1  0  0  0  0
 15 18  1  0  0  0  0
 18 19  1  0  0  0  0
 18 20  1  0  0  0  0
 18 21  1  0  0  0  0
  9 12  1  0  0  0  0
 16 17  1  0  0  0  0
M  END

>  <name>
Penbutolol

>  <ROTATABLE_BONDCOUNT>
7

>  <HBDScore>
0.5

>  <dipole>
4.56

>  <logD>
1.24

>  <MPOScore>
4.345000000000001

>  <logDScore>
1.0

>  <MW>
291.435

>  <charge_dist(7.4)>
1.00

>  <CNS>
TRUE

>  <ArRings>
1

>  <HBD>
2

>  <BALABAN_INDEX>
1.66

>  <bpKa>
9.76

>  <TPSAScore>
1.0

>  <MWScore>
1.0

>  <bpKaScore>
0.1200000000000001

>  <logPScore>
0.7250000000000001

>  <MPO_area>
54.46

>  <TPSA>
41.49

>  <logP>
3.55

$$$$

  Mrv1722703221715202D          

 21 23  0  0  0  0            999 V2000
    0.0000    0.0000    0.0000 O   0  0  0  0  0  0  0  0  0  0  0  0
    0.8127    0.1419    0.0000 C   0  0  0  0  0  0  0  0  0  0  0  0
    1.3351   -0.4966    0.0000 C   0  0  0  0  0  0  0  0  0  0  0  0
    1.0964    0.9223    0.0000 C   0  0  0  0  0  0  0  0  0  0  0  0
    2.1478   -0.3547    0.0000 C   0  0  0  0  0  0  0  0  0  0  0  0
    1.9091    1.0642    0.0000 C   0  0  0  0  0  0  0  0  0  0  0  0
    2.4315    0.4257    0.0000 C   0  0  0  0  0  0  0  0  0  0  0  0
    2.6702   -0.9932    0.0000 C   0  0  2  0  0  0  0  0  0  0  0  0
    3.2442    0.5676    0.0000 C   0  0  0  0  0  0  0  0  0  0  0  0
    3.4828   -0.8513    0.0000 C   0  0  1  0  0  0  0  0  0  0  0  0
    3.1926   -1.6318    0.0000 C   0  0  0  0  0  0  0  0  0  0  0  0
    2.3735   -1.7608    0.0000 C   0  0  0  0  0  0  0  0  0  0  0  0
    3.7666   -0.0709    0.0000 C   0  0  1  0  0  0  0  0  0  0  0  0
    3.6634   -1.2448    0.0000 C   0  0  0  0  0  0  0  0  0  0  0  0
    4.0053   -1.4899    0.0000 C   0  0  0  0  0  0  0  0  0  0  0  0
    4.2890   -0.7094    0.0000 N   0  0  0  0  0  0  0  0  0  0  0  0
    5.1017   -0.5676    0.0000 C   0  0  0  0  0  0  0  0  0  0  0  0
    5.3855    0.2128    0.0000 C   0  0  0  0  0  0  0  0  0  0  0  0
    6.1981    0.3547    0.0000 C   0  0  0  0  0  0  0  0  0  0  0  0
    6.4819    1.1352    0.0000 C   0  0  0  0  0  0  0  0  0  0  0  0
    6.7206   -0.2838    0.0000 C   0  0  0  0  0  0  0  0  0  0  0  0
  1  2  1  0  0  0  0
  2  3  2  0  0  0  0
  2  4  1  0  0  0  0
  3  5  1  0  0  0  0
  4  6  2  0  0  0  0
  5  7  2  0  0  0  0
  5  8  1  0  0  0  0
  7  9  1  0  0  0  0
  8 10  1  0  0  0  0
  8 11  1  6  0  0  0
  8 12  1  0  0  0  0
  9 13  1  0  0  0  0
 10 14  1  1  0  0  0
 11 15  1  0  0  0  0
 13 16  1  6  0  0  0
 16 17  1  0  0  0  0
 17 18  1  0  0  0  0
 18 19  2  0  0  0  0
 19 20  1  0  0  0  0
 19 21  1  0  0  0  0
  6  7  1  0  0  0  0
 10 13  1  0  0  0  0
 15 16  1  0  0  0  0
M  END

>  <name>
Pentazocine

>  <ROTATABLE_BONDCOUNT>
2

>  <HBDScore>
0.8333333333333334

>  <dipole>
2.85

>  <logD>
1.99

>  <MPOScore>
3.776833333333333

>  <logDScore>
1.0

>  <MW>
285.431

>  <charge_dist(7.4)>
0.99

>  <CNS>
TRUE

>  <ArRings>
1

>  <HBD>
1

>  <BALABAN_INDEX>
1.52

>  <bpKa>
9.57

>  <TPSAScore>
0.17349999999999996

>  <MWScore>
1.0

>  <bpKaScore>
0.21499999999999986

>  <logPScore>
0.5549999999999999

>  <MPO_area>
43.77

>  <TPSA>
23.47

>  <logP>
3.89

$$$$

  Mrv1722703221715202D          

 20 21  0  0  0  0            999 V2000
    0.0000    0.0000    0.0000 O   0  0  0  0  0  0  0  0  0  0  0  0
   -0.6657    0.5042    0.0000 C   0  0  0  0  0  0  0  0  0  0  0  0
   -0.5688    1.3315    0.0000 N   0  0  0  0  0  0  0  0  0  0  0  0
   -1.4349    0.1875    0.0000 N   0  0  0  0  0  0  0  0  0  0  0  0
   -1.2345    1.8357    0.0000 C   0  0  0  0  0  0  0  0  0  0  0  0
    0.1875    1.6612    0.0000 C   0  0  0  0  0  0  0  0  0  0  0  0
   -2.1007    0.6916    0.0000 C   0  0  0  0  0  0  0  0  0  0  0  0
   -1.5448   -0.6270    0.0000 C   0  0  0  0  0  0  0  0  0  0  0  0
   -1.1376    2.6630    0.0000 O   0  0  0  0  0  0  0  0  0  0  0  0
   -2.0037    1.5189    0.0000 C   0  0  0  0  0  0  0  0  0  0  0  0
    0.8403    1.1699    0.0000 C   0  0  0  0  0  0  0  0  0  0  0  0
   -2.9216    0.5429    0.0000 N   0  0  0  0  0  0  0  0  0  0  0  0
   -2.7599    1.8744    0.0000 N   0  0  0  0  0  0  0  0  0  0  0  0
    1.5965    1.4996    0.0000 C   0  0  0  0  0  0  0  0  0  0  0  0
   -3.3287    1.2734    0.0000 C   0  0  0  0  0  0  0  0  0  0  0  0
   -2.9216    2.6954    0.0000 C   0  0  0  0  0  0  0  0  0  0  0  0
    2.2493    1.0083    0.0000 C   0  0  0  0  0  0  0  0  0  0  0  0
    3.0056    1.3379    0.0000 C   0  0  0  0  0  0  0  0  0  0  0  0
    3.1025    2.1653    0.0000 O   0  0  0  0  0  0  0  0  0  0  0  0
    3.6584    0.8467    0.0000 C   0  0  0  0  0  0  0  0  0  0  0  0
  1  2  2  0  0  0  0
  2  3  1  0  0  0  0
  2  4  1  0  0  0  0
  3  5  1  0  0  0  0
  3  6  1  0  0  0  0
  4  7  1  0  0  0  0
  4  8  1  0  0  0  0
  5  9  2  0  0  0  0
  5 10  1  0  0  0  0
  6 11  1  0  0  0  0
  7 12  1  0  0  0  0
 10 13  1  0  0  0  0
 11 14  1  0  0  0  0
 12 15  2  0  0  0  0
 13 16  1  0  0  0  0
 14 17  1  0  0  0  0
 17 18  1  0  0  0  0
 18 19  2  0  0  0  0
 18 20  1  0  0  0  0
  7 10  2  0  0  0  0
 13 15  1  0  0  0  0
M  END

>  <name>
Pentoxifylline

>  <ROTATABLE_BONDCOUNT>
5

>  <HBDScore>
1.0

>  <dipole>
6.76

>  <logD>
0.23

>  <MPOScore>
6.0

>  <logDScore>
1.0

>  <MW>
278.312

>  <charge_dist(7.4)>
0.00

>  <CNS>
TRUE

>  <ArRings>
2

>  <HBD>
0

>  <BALABAN_INDEX>
1.93

>  <bpKa>
-1.16

>  <TPSAScore>
1.0

>  <MWScore>
1.0

>  <bpKaScore>
1.0

>  <logPScore>
1.0

>  <MPO_area>
100.0

>  <TPSA>
75.51

>  <logP>
0.23

$$$$

  Mrv1722703221715202D          

 27 30  0  0  0  0            999 V2000
    0.0000    0.0000    0.0000 O   0  0  0  0  0  0  0  0  0  0  0  0
   -0.4177   -0.7114    0.0000 C   0  0  0  0  0  0  0  0  0  0  0  0
   -0.0065   -1.4228    0.0000 N   0  0  0  0  0  0  0  0  0  0  0  0
   -1.2531   -0.7049    0.0000 C   0  0  0  0  0  0  0  0  0  0  0  0
    0.8158   -1.4163    0.0000 C   0  0  0  0  0  0  0  0  0  0  0  0
   -0.4242   -2.1342    0.0000 C   0  0  0  0  0  0  0  0  0  0  0  0
   -1.6708    0.0196    0.0000 C   0  0  0  0  0  0  0  0  0  0  0  0
   -1.6708   -1.4163    0.0000 C   0  0  0  0  0  0  0  0  0  0  0  0
    1.2270   -2.1277    0.0000 C   0  0  0  0  0  0  0  0  0  0  0  0
    1.2270   -0.6918    0.0000 C   0  0  0  0  0  0  0  0  0  0  0  0
   -1.2596   -2.1277    0.0000 C   0  0  0  0  0  0  0  0  0  0  0  0
   -2.5062    0.0261    0.0000 C   0  0  0  0  0  0  0  0  0  0  0  0
   -1.2596    0.7440    0.0000 C   0  0  0  0  0  0  0  0  0  0  0  0
    2.0494   -2.1212    0.0000 C   0  0  0  0  0  0  0  0  0  0  0  0
    2.0494   -0.6853    0.0000 C   0  0  0  0  0  0  0  0  0  0  0  0
   -1.6773   -2.8391    0.0000 C   0  0  0  0  0  0  0  0  0  0  0  0
   -2.9240   -0.6853    0.0000 C   0  0  0  0  0  0  0  0  0  0  0  0
   -2.9240    0.7505    0.0000 C   0  0  0  0  0  0  0  0  0  0  0  0
   -1.6773    1.4685    0.0000 C   0  0  0  0  0  0  0  0  0  0  0  0
    2.4605   -1.3967    0.0000 C   0  0  0  0  0  0  0  0  0  0  0  0
   -2.5128   -2.8326    0.0000 N   0  0  0  0  0  0  0  0  0  0  0  0
   -1.2662   -3.5505    0.0000 C   0  0  0  0  0  0  0  0  0  0  0  0
   -3.3417   -1.3967    0.0000 N   0  0  0  0  0  0  0  0  0  0  0  0
   -2.5128    1.4750    0.0000 C   0  0  0  0  0  0  0  0  0  0  0  0
   -2.9305   -3.5439    0.0000 C   0  0  0  0  0  0  0  0  0  0  0  0
   -1.6839   -4.2619    0.0000 C   0  0  0  0  0  0  0  0  0  0  0  0
   -2.5193   -4.2554    0.0000 C   0  0  0  0  0  0  0  0  0  0  0  0
  1  2  2  0  0  0  0
  2  3  1  0  0  0  0
  2  4  1  0  0  0  0
  3  5  1  0  0  0  0
  3  6  1  0  0  0  0
  4  7  1  0  0  0  0
  4  8  2  0  0  0  0
  5  9  2  0  0  0  0
  5 10  1  0  0  0  0
  6 11  2  0  0  0  0
  7 12  2  0  0  0  0
  7 13  1  0  0  0  0
  9 14  1  0  0  0  0
 10 15  2  0  0  0  0
 11 16  1  0  0  0  0
 12 17  1  0  0  0  0
 12 18  1  0  0  0  0
 13 19  2  0  0  0  0
 14 20  2  0  0  0  0
 16 21  2  0  0  0  0
 16 22  1  0  0  0  0
 17 23  3  0  0  0  0
 18 24  2  0  0  0  0
 21 25  1  0  0  0  0
 22 26  2  0  0  0  0
 25 27  2  0  0  0  0
  8 11  1  0  0  0  0
 15 20  1  0  0  0  0
 19 24  1  0  0  0  0
 26 27  1  0  0  0  0
M  END

>  <name>
Perampanel

>  <ROTATABLE_BONDCOUNT>
3

>  <HBDScore>
1.0

>  <dipole>
7.20

>  <logD>
4.11

>  <MPOScore>
4.445

>  <logDScore>
0.0

>  <MW>
349.393

>  <charge_dist(7.4)>
0.00

>  <CNS>
TRUE

>  <ArRings>
4

>  <HBD>
0

>  <BALABAN_INDEX>
1.53

>  <bpKa>
4.01

>  <TPSAScore>
1.0

>  <MWScore>
1.0

>  <bpKaScore>
1.0

>  <logPScore>
0.44499999999999984

>  <MPO_area>
57.42

>  <TPSA>
56.99

>  <logP>
4.11

$$$$

  Mrv1722703221715202D          

 22 25  0  0  0  0            999 V2000
    0.0000    0.0000    0.0000 S   0  0  0  0  0  0  0  0  0  0  0  0
    0.2001    0.8004    0.0000 C   0  0  0  0  0  0  0  0  0  0  0  0
    0.5752   -0.5690    0.0000 C   0  0  0  0  0  0  0  0  0  0  0  0
   -0.3877    1.3819    0.0000 C   0  0  2  0  0  0  0  0  0  0  0  0
   -0.1876    2.1822    0.0000 C   0  0  0  0  0  0  0  0  0  0  0  0
   -1.1818    1.1756    0.0000 C   0  0  0  0  0  0  0  0  0  0  0  0
   -0.7753    2.7637    0.0000 N   0  0  0  0  0  0  0  0  0  0  0  0
   -1.7696    1.7571    0.0000 C   0  0  2  0  0  0  0  0  0  0  0  0
   -1.5695    2.5574    0.0000 C   0  0  2  0  0  0  0  0  0  0  0  0
   -0.5752    3.5641    0.0000 C   0  0  0  0  0  0  0  0  0  0  0  0
   -2.5637    1.5507    0.0000 C   0  0  0  0  0  0  0  0  0  0  0  0
   -2.1572    3.1389    0.0000 C   0  0  0  0  0  0  0  0  0  0  0  0
    0.2064    3.7829    0.0000 C   0  0  0  0  0  0  0  0  0  0  0  0
   -3.1514    2.1322    0.0000 C   0  0  0  0  0  0  0  0  0  0  0  0
   -2.7763    0.7628    0.0000 C   0  0  0  0  0  0  0  0  0  0  0  0
   -2.9513    2.9326    0.0000 C   0  0  0  0  0  0  0  0  0  0  0  0
    0.4064    4.5833    0.0000 C   0  0  0  0  0  0  0  0  0  0  0  0
   -3.9456    1.9259    0.0000 C   0  0  0  0  0  0  0  0  0  0  0  0
   -3.5704    0.5565    0.0000 C   0  0  0  0  0  0  0  0  0  0  0  0
   -3.6892    3.3077    0.0000 C   0  0  0  0  0  0  0  0  0  0  0  0
   -4.2582    2.7262    0.0000 N   0  0  0  0  0  2  0  0  0  0  0  0
   -4.1581    1.1380    0.0000 C   0  0  0  0  0  0  0  0  0  0  0  0
  1  2  1  0  0  0  0
  1  3  1  0  0  0  0
  4  2  1  1  0  0  0
  4  5  1  0  0  0  0
  4  6  1  0  0  0  0
  5  7  1  0  0  0  0
  8  6  1  1  0  0  0
  9  7  1  6  0  0  0
  7 10  1  0  0  0  0
  8 11  1  0  0  0  0
  9 12  1  0  0  0  0
 10 13  1  0  0  0  0
 11 14  2  0  0  0  0
 11 15  1  0  0  0  0
 12 16  1  0  0  0  0
 13 17  1  0  0  0  0
 14 18  1  0  0  0  0
 15 19  2  0  0  0  0
 16 20  2  0  0  0  0
 18 21  1  0  0  0  0
 18 22  2  0  0  0  0
  8  9  1  0  0  0  0
 14 16  1  0  0  0  0
 19 22  1  0  0  0  0
 20 21  1  0  0  0  0
M  RAD  1  21   2
M  END

>  <name>
Pergolide

>  <ROTATABLE_BONDCOUNT>
4

>  <HBDScore>
1.0

>  <logD>
2.21

>  <MPOScore>
3.84

>  <logDScore>
0.895

>  <MW>
313.48

>  <charge_dist(7.4)>
0.98

>  <CNS>
TRUE

>  <ArRings>
2

>  <HBD>
0

>  <BALABAN_INDEX>
1.58

>  <bpKa>
9.15

>  <TPSAScore>
0.0

>  <MWScore>
1.0

>  <bpKaScore>
0.4249999999999998

>  <logPScore>
0.52

>  <MPO_area>
43.02

>  <TPSA>
16.13

>  <logP>
3.96

$$$$

  Mrv1722703221715202D          

 26 27  0  0  0  0            999 V2000
    0.0000    0.0000    0.0000 O   0  0  0  0  0  0  0  0  0  0  0  0
    0.8238    0.0588    0.0000 C   0  0  0  0  0  0  0  0  0  0  0  0
    1.1834    0.8107    0.0000 O   0  0  0  0  0  0  0  0  0  0  0  0
    1.2814   -0.6276    0.0000 C   0  0  1  0  0  0  0  0  0  0  0  0
    2.1052   -0.6538    0.0000 N   0  0  0  0  0  0  0  0  0  0  0  0
    0.9872   -1.3991    0.0000 C   0  0  0  0  0  0  0  0  0  0  0  0
    2.6152    0.0065    0.0000 C   0  0  0  0  0  0  0  0  0  0  0  0
    2.3275   -1.4449    0.0000 C   0  0  2  0  0  0  0  0  0  0  0  0
    1.6345   -1.9091    0.0000 C   0  0  1  0  0  0  0  0  0  0  0  0
    2.3013    0.7845    0.0000 O   0  0  0  0  0  0  0  0  0  0  0  0
    3.4324   -0.1046    0.0000 C   0  0  1  0  0  0  0  0  0  0  0  0
    3.0663   -1.8045    0.0000 C   0  0  0  0  0  0  0  0  0  0  0  0
    1.6802   -2.7329    0.0000 C   0  0  0  0  0  0  0  0  0  0  0  0
    3.7331   -0.8695    0.0000 N   0  0  0  0  0  0  0  0  0  0  0  0
    3.9424    0.5557    0.0000 C   0  0  0  0  0  0  0  0  0  0  0  0
    3.1120   -2.6282    0.0000 C   0  0  0  0  0  0  0  0  0  0  0  0
    2.4190   -3.0924    0.0000 C   0  0  0  0  0  0  0  0  0  0  0  0
    4.5503   -0.9807    0.0000 C   0  0  2  0  0  0  0  0  0  0  0  0
    5.0603   -0.3204    0.0000 C   0  0  0  0  0  0  0  0  0  0  0  0
    4.8511   -1.7456    0.0000 C   0  0  0  0  0  0  0  0  0  0  0  0
    4.7465    0.4576    0.0000 O   0  0  0  0  0  0  0  0  0  0  0  0
    5.8775   -0.4315    0.0000 O   0  0  0  0  0  0  0  0  0  0  0  0
    5.6683   -1.8568    0.0000 C   0  0  0  0  0  0  0  0  0  0  0  0
    6.3875    0.2288    0.0000 C   0  0  0  0  0  0  0  0  0  0  0  0
    5.9691   -2.6217    0.0000 C   0  0  0  0  0  0  0  0  0  0  0  0
    7.2047    0.1177    0.0000 C   0  0  0  0  0  0  0  0  0  0  0  0
  1  2  2  0  0  0  0
  2  3  1  0  0  0  0
  4  2  1  1  0  0  0
  4  5  1  0  0  0  0
  4  6  1  0  0  0  0
  5  7  1  0  0  0  0
  8  5  1  1  0  0  0
  9  6  1  1  0  0  0
  7 10  2  0  0  0  0
  7 11  1  0  0  0  0
  8 12  1  0  0  0  0
  9 13  1  0  0  0  0
 11 14  1  6  0  0  0
 11 15  1  0  0  0  0
 12 16  1  0  0  0  0
 13 17  1  0  0  0  0
 18 14  1  6  0  0  0
 18 19  1  0  0  0  0
 18 20  1  0  0  0  0
 19 21  2  0  0  0  0
 19 22  1  0  0  0  0
 20 23  1  0  0  0  0
 22 24  1  0  0  0  0
 23 25  1  0  0  0  0
 24 26  1  0  0  0  0
  8  9  1  0  0  0  0
 16 17  1  0  0  0  0
M  END

>  <name>
Perindopril

>  <ROTATABLE_BONDCOUNT>
9

>  <HBDScore>
0.5

>  <dipole>
5.04

>  <logD>
-0.85

>  <MPOScore>
5.241471428571428

>  <logDScore>
1.0

>  <MW>
368.474

>  <charge_dist(7.4)>
-0.99

>  <CNS>
TRUE

>  <ArRings>
0

>  <HBD>
2

>  <BALABAN_INDEX>
2.07

>  <bpKa>
5.48

>  <TPSAScore>
0.802

>  <MWScore>
0.9394714285714286

>  <bpKaScore>
1.0

>  <logPScore>
1.0

>  <MPO_area>
76.57

>  <TPSA>
95.94

>  <logP>
0.63

$$$$

  Mrv1722703221715202D          

 13 13  0  0  0  0            999 V2000
    0.0000    0.0000    0.0000 O   0  0  0  0  0  0  0  0  0  0  0  0
   -0.0970   -0.8150    0.0000 C   0  0  0  0  0  0  0  0  0  0  0  0
    0.5628   -1.2937    0.0000 N   0  0  0  0  0  0  0  0  0  0  0  0
   -0.8604   -1.1450    0.0000 N   0  0  0  0  0  0  0  0  0  0  0  0
    1.3132   -0.9509    0.0000 C   0  0  0  0  0  0  0  0  0  0  0  0
    1.3973   -0.1229    0.0000 O   0  0  0  0  0  0  0  0  0  0  0  0
    1.9730   -1.4296    0.0000 C   0  0  0  0  0  0  0  0  0  0  0  0
    2.7234   -1.0867    0.0000 C   0  0  0  0  0  0  0  0  0  0  0  0
    2.8074   -0.2587    0.0000 C   0  0  0  0  0  0  0  0  0  0  0  0
    3.3831   -1.5654    0.0000 C   0  0  0  0  0  0  0  0  0  0  0  0
    3.5578    0.0841    0.0000 C   0  0  0  0  0  0  0  0  0  0  0  0
    4.1335   -1.2226    0.0000 C   0  0  0  0  0  0  0  0  0  0  0  0
    4.2176   -0.3946    0.0000 C   0  0  0  0  0  0  0  0  0  0  0  0
  1  2  2  0  0  0  0
  2  3  1  0  0  0  0
  2  4  1  0  0  0  0
  3  5  1  0  0  0  0
  5  6  2  0  0  0  0
  5  7  1  0  0  0  0
  7  8  1  0  0  0  0
  8  9  2  0  0  0  0
  8 10  1  0  0  0  0
  9 11  1  0  0  0  0
 10 12  2  0  0  0  0
 11 13  2  0  0  0  0
 12 13  1  0  0  0  0
M  END

>  <name>
Phenacemide

>  <ROTATABLE_BONDCOUNT>
2

>  <HBDScore>
0.5

>  <dipole>
4.97

>  <logD>
0.46

>  <MPOScore>
5.5

>  <logDScore>
1.0

>  <MW>
178.191

>  <charge_dist(7.4)>
-0.00

>  <CNS>
TRUE

>  <ArRings>
1

>  <HBD>
2

>  <BALABAN_INDEX>
1.98

>  <bpKa>
-7.84

>  <TPSAScore>
1.0

>  <MWScore>
1.0

>  <bpKaScore>
1.0

>  <logPScore>
1.0

>  <MPO_area>
83.33

>  <TPSA>
72.19

>  <logP>
0.46

$$$$

  Mrv1722703221715202D          

 10 10  0  0  0  0            999 V2000
    0.0000    0.0000    0.0000 N   0  0  0  0  0  0  0  0  0  0  0  0
   -0.6250    0.5485    0.0000 N   0  0  0  0  0  0  0  0  0  0  0  0
    0.7781    0.2742    0.0000 C   0  0  0  0  0  0  0  0  0  0  0  0
    1.3903   -0.2615    0.0000 C   0  0  0  0  0  0  0  0  0  0  0  0
    2.1684    0.0127    0.0000 C   0  0  0  0  0  0  0  0  0  0  0  0
    2.3214    0.8291    0.0000 C   0  0  0  0  0  0  0  0  0  0  0  0
    2.7806   -0.5230    0.0000 C   0  0  0  0  0  0  0  0  0  0  0  0
    3.0995    1.1033    0.0000 C   0  0  0  0  0  0  0  0  0  0  0  0
    3.5587   -0.2488    0.0000 C   0  0  0  0  0  0  0  0  0  0  0  0
    3.7117    0.5676    0.0000 C   0  0  0  0  0  0  0  0  0  0  0  0
  1  2  1  0  0  0  0
  1  3  1  0  0  0  0
  3  4  1  0  0  0  0
  4  5  1  0  0  0  0
  5  6  2  0  0  0  0
  5  7  1  0  0  0  0
  6  8  1  0  0  0  0
  7  9  2  0  0  0  0
  8 10  2  0  0  0  0
  9 10  1  0  0  0  0
M  END

>  <name>
Phenelzine

>  <ROTATABLE_BONDCOUNT>
3

>  <HBDScore>
0.5

>  <dipole>
0.07

>  <logD>
1.20

>  <MPOScore>
5.4025

>  <logDScore>
1.0

>  <MW>
136.198

>  <charge_dist(7.4)>
0.01

>  <CNS>
TRUE

>  <ArRings>
1

>  <HBD>
2

>  <BALABAN_INDEX>
2.02

>  <bpKa>
5.55

>  <TPSAScore>
0.9024999999999999

>  <MWScore>
1.0

>  <bpKaScore>
1.0

>  <logPScore>
1.0

>  <MPO_area>
80.9

>  <TPSA>
38.05

>  <logP>
1.20

$$$$

  Mrv1722703221715202D          

 13 14  0  0  0  0            999 V2000
    0.0000    0.0000    0.0000 O   0  0  0  0  0  0  0  0  0  0  0  0
   -0.3973   -0.7230    0.0000 C   0  0  0  0  0  0  0  0  0  0  0  0
    0.8207    0.0326    0.0000 C   0  0  0  0  0  0  0  0  0  0  0  0
   -1.2310   -0.7425    0.0000 C   0  0  0  0  0  0  0  0  0  0  0  0
    0.0326   -1.4199    0.0000 C   0  0  0  0  0  0  0  0  0  0  0  0
    1.2506   -0.6643    0.0000 C   0  0  0  0  0  0  0  0  0  0  0  0
   -1.6740   -0.0326    0.0000 C   0  0  0  0  0  0  0  0  0  0  0  0
   -1.6284   -1.4655    0.0000 C   0  0  0  0  0  0  0  0  0  0  0  0
    0.8533   -1.3874    0.0000 N   0  0  0  0  0  0  0  0  0  0  0  0
   -0.3647   -2.1429    0.0000 C   0  0  0  0  0  0  0  0  0  0  0  0
   -2.5077   -0.0521    0.0000 C   0  0  0  0  0  0  0  0  0  0  0  0
   -2.4620   -1.4851    0.0000 C   0  0  0  0  0  0  0  0  0  0  0  0
   -2.9050   -0.7751    0.0000 C   0  0  0  0  0  0  0  0  0  0  0  0
  1  2  1  0  0  0  0
  1  3  1  0  0  0  0
  2  4  1  0  0  0  0
  2  5  1  0  0  0  0
  3  6  1  0  0  0  0
  4  7  2  0  0  0  0
  4  8  1  0  0  0  0
  5  9  1  0  0  0  0
  5 10  1  0  0  0  0
  7 11  1  0  0  0  0
  8 12  2  0  0  0  0
 11 13  2  0  0  0  0
  6  9  1  0  0  0  0
 12 13  1  0  0  0  0
M  END

>  <name>
Phenmetrazine

>  <ROTATABLE_BONDCOUNT>
1

>  <HBDScore>
0.8333333333333334

>  <dipole>
1.19

>  <logD>
0.91

>  <MPOScore>
4.786333333333332

>  <logDScore>
1.0

>  <MW>
177.247

>  <charge_dist(7.4)>
0.87

>  <CNS>
TRUE

>  <ArRings>
1

>  <HBD>
1

>  <BALABAN_INDEX>
1.62

>  <bpKa>
8.22

>  <TPSAScore>
0.06300000000000008

>  <MWScore>
1.0

>  <bpKaScore>
0.8899999999999997

>  <logPScore>
1.0

>  <MPO_area>
62.45

>  <TPSA>
21.26

>  <logP>
1.79

$$$$

  Mrv1722703221715202D          

 17 18  0  0  0  0            999 V2000
    0.0000    0.0000    0.0000 O   0  0  0  0  0  0  0  0  0  0  0  0
    0.7581    0.3333    0.0000 C   0  0  0  0  0  0  0  0  0  0  0  0
    1.4181   -0.1568    0.0000 N   0  0  0  0  0  0  0  0  0  0  0  0
    0.8495    1.1632    0.0000 N   0  0  0  0  0  0  0  0  0  0  0  0
    2.1762    0.1764    0.0000 C   0  0  0  0  0  0  0  0  0  0  0  0
    1.6076    1.4965    0.0000 C   0  0  0  0  0  0  0  0  0  0  0  0
    2.8362   -0.3137    0.0000 O   0  0  0  0  0  0  0  0  0  0  0  0
    2.2676    1.0064    0.0000 C   0  0  0  0  0  0  0  0  0  0  0  0
    1.6991    2.3265    0.0000 O   0  0  0  0  0  0  0  0  0  0  0  0
    3.0584    0.7711    0.0000 C   0  0  0  0  0  0  0  0  0  0  0  0
    2.6336    1.7579    0.0000 C   0  0  0  0  0  0  0  0  0  0  0  0
    3.2414   -0.0327    0.0000 C   0  0  0  0  0  0  0  0  0  0  0  0
    3.6596    1.3462    0.0000 C   0  0  0  0  0  0  0  0  0  0  0  0
    3.4570    1.8102    0.0000 C   0  0  0  0  0  0  0  0  0  0  0  0
    4.0320   -0.2679    0.0000 C   0  0  0  0  0  0  0  0  0  0  0  0
    4.4503    1.1110    0.0000 C   0  0  0  0  0  0  0  0  0  0  0  0
    4.6333    0.3071    0.0000 C   0  0  0  0  0  0  0  0  0  0  0  0
  1  2  2  0  0  0  0
  2  3  1  0  0  0  0
  2  4  1  0  0  0  0
  3  5  1  0  0  0  0
  4  6  1  0  0  0  0
  5  7  2  0  0  0  0
  5  8  1  0  0  0  0
  6  9  2  0  0  0  0
  8 10  1  0  0  0  0
  8 11  1  0  0  0  0
 10 12  2  0  0  0  0
 10 13  1  0  0  0  0
 11 14  1  0  0  0  0
 12 15  1  0  0  0  0
 13 16  2  0  0  0  0
 15 17  2  0  0  0  0
  6  8  1  0  0  0  0
 16 17  1  0  0  0  0
M  END

>  <name>
Phenobarbital

>  <ROTATABLE_BONDCOUNT>
2

>  <HBDScore>
0.5

>  <dipole>
1.67

>  <logD>
0.96

>  <MPOScore>
5.5

>  <logDScore>
1.0

>  <MW>
232.239

>  <charge_dist(7.4)>
-0.65

>  <CNS>
TRUE

>  <ArRings>
1

>  <HBD>
2

>  <BALABAN_INDEX>
2.20

>  <bpKa>
0.0

>  <TPSAScore>
1.0

>  <MWScore>
1.0

>  <bpKaScore>
1.0

>  <logPScore>
1.0

>  <MPO_area>
83.33

>  <TPSA>
75.27

>  <logP>
1.41

$$$$

  Mrv1722703221715202D          

 21 22  0  0  0  0            999 V2000
    0.0000    0.0000    0.0000 Cl  0  0  0  0  0  0  0  0  0  0  0  0
   -0.1965    0.8115    0.0000 C   0  0  0  0  0  0  0  0  0  0  0  0
    0.3994    1.3820    0.0000 C   0  0  0  0  0  0  0  0  0  0  0  0
    0.2028    2.1935    0.0000 N   0  0  0  0  0  0  0  0  0  0  0  0
    0.7988    2.7640    0.0000 C   0  0  2  0  0  0  0  0  0  0  0  0
   -0.5959    2.4407    0.0000 C   0  0  0  0  0  0  0  0  0  0  0  0
    1.5849    2.5295    0.0000 C   0  0  0  0  0  0  0  0  0  0  0  0
    0.6022    3.5755    0.0000 C   0  0  0  0  0  0  0  0  0  0  0  0
   -1.2045    1.8828    0.0000 C   0  0  0  0  0  0  0  0  0  0  0  0
    1.7688    1.7307    0.0000 O   0  0  0  0  0  0  0  0  0  0  0  0
   -2.0033    2.1301    0.0000 C   0  0  0  0  0  0  0  0  0  0  0  0
   -1.0207    1.0841    0.0000 C   0  0  0  0  0  0  0  0  0  0  0  0
    2.5548    1.4962    0.0000 C   0  0  0  0  0  0  0  0  0  0  0  0
   -2.6119    1.5722    0.0000 C   0  0  0  0  0  0  0  0  0  0  0  0
   -1.6293    0.5262    0.0000 C   0  0  0  0  0  0  0  0  0  0  0  0
    2.7387    0.6973    0.0000 C   0  0  0  0  0  0  0  0  0  0  0  0
    3.1508    2.0667    0.0000 C   0  0  0  0  0  0  0  0  0  0  0  0
   -2.4280    0.7734    0.0000 C   0  0  0  0  0  0  0  0  0  0  0  0
    3.5248    0.4628    0.0000 C   0  0  0  0  0  0  0  0  0  0  0  0
    3.9369    1.8321    0.0000 C   0  0  0  0  0  0  0  0  0  0  0  0
    4.1207    1.0334    0.0000 C   0  0  0  0  0  0  0  0  0  0  0  0
  1  2  1  0  0  0  0
  2  3  1  0  0  0  0
  3  4  1  0  0  0  0
  5  4  1  1  0  0  0
  4  6  1  0  0  0  0
  5  7  1  0  0  0  0
  5  8  1  0  0  0  0
  6  9  1  0  0  0  0
  7 10  1  0  0  0  0
  9 11  2  0  0  0  0
  9 12  1  0  0  0  0
 10 13  1  0  0  0  0
 11 14  1  0  0  0  0
 12 15  2  0  0  0  0
 13 16  2  0  0  0  0
 13 17  1  0  0  0  0
 14 18  2  0  0  0  0
 16 19  1  0  0  0  0
 17 20  2  0  0  0  0
 19 21  2  0  0  0  0
 15 18  1  0  0  0  0
 20 21  1  0  0  0  0
M  END

>  <name>
Phenoxybenzamine

>  <ROTATABLE_BONDCOUNT>
8

>  <HBDScore>
1.0

>  <dipole>
3.64

>  <logD>
4.03

>  <MPOScore>
3.18

>  <logDScore>
0.0

>  <MW>
303.83

>  <charge_dist(7.4)>
0.75

>  <CNS>
TRUE

>  <ArRings>
2

>  <HBD>
0

>  <BALABAN_INDEX>
1.64

>  <bpKa>
7.89

>  <TPSAScore>
0.0

>  <MWScore>
1.0

>  <bpKaScore>
1.0

>  <logPScore>
0.18000000000000016

>  <MPO_area>
36.33

>  <TPSA>
12.47

>  <logP>
4.64

$$$$

  Mrv1722703221715202D          

 11 11  0  0  0  0            999 V2000
    0.0000    0.0000    0.0000 O   0  0  0  0  0  0  0  0  0  0  0  0
    0.2289    0.8011    0.0000 C   0  0  2  0  0  0  0  0  0  0  0  0
    1.0299    0.9981    0.0000 C   0  0  0  0  0  0  0  0  0  0  0  0
   -0.3497    1.4114    0.0000 C   0  0  1  0  0  0  0  0  0  0  0  0
    1.2588    1.7992    0.0000 C   0  0  0  0  0  0  0  0  0  0  0  0
    1.5958    0.4006    0.0000 C   0  0  0  0  0  0  0  0  0  0  0  0
   -0.1208    2.2125    0.0000 N   0  0  0  0  0  0  0  0  0  0  0  0
   -1.1634    1.2270    0.0000 C   0  0  0  0  0  0  0  0  0  0  0  0
    2.0599    1.9963    0.0000 C   0  0  0  0  0  0  0  0  0  0  0  0
    2.3969    0.5976    0.0000 C   0  0  0  0  0  0  0  0  0  0  0  0
    2.6257    1.3987    0.0000 C   0  0  0  0  0  0  0  0  0  0  0  0
  2  1  1  1  0  0  0
  2  3  1  0  0  0  0
  2  4  1  0  0  0  0
  3  5  2  0  0  0  0
  3  6  1  0  0  0  0
  4  7  1  6  0  0  0
  4  8  1  0  0  0  0
  5  9  1  0  0  0  0
  6 10  2  0  0  0  0
  9 11  2  0  0  0  0
 10 11  1  0  0  0  0
M  END

>  <name>
Phenylpropanolamine

>  <ROTATABLE_BONDCOUNT>
2

>  <HBDScore>
0.5

>  <dipole>
2.17

>  <logD>
-1.05

>  <MPOScore>
4.815

>  <logDScore>
1.0

>  <MW>
151.209

>  <charge_dist(7.4)>
0.99

>  <CNS>
TRUE

>  <ArRings>
1

>  <HBD>
2

>  <BALABAN_INDEX>
2.11

>  <bpKa>
9.37

>  <TPSAScore>
1.0

>  <MWScore>
1.0

>  <bpKaScore>
0.3150000000000004

>  <logPScore>
1.0

>  <MPO_area>
66.21

>  <TPSA>
46.25

>  <logP>
0.89

$$$$

  Mrv1722703221715202D          

 19 21  0  0  0  0            999 V2000
    0.0000    0.0000    0.0000 O   0  0  0  0  0  0  0  0  0  0  0  0
    0.7948    0.2150    0.0000 C   0  0  0  0  0  0  0  0  0  0  0  0
    1.0879    0.9967    0.0000 N   0  0  0  0  0  0  0  0  0  0  0  0
    1.4267   -0.3062    0.0000 N   0  0  0  0  0  0  0  0  0  0  0  0
    1.9087    0.9576    0.0000 C   0  0  0  0  0  0  0  0  0  0  0  0
    2.1172    0.1499    0.0000 C   0  0  0  0  0  0  0  0  0  0  0  0
    2.4298    1.6025    0.0000 O   0  0  0  0  0  0  0  0  0  0  0  0
    2.8858    0.4495    0.0000 C   0  0  0  0  0  0  0  0  0  0  0  0
    2.4820   -0.5863    0.0000 C   0  0  0  0  0  0  0  0  0  0  0  0
    3.5177   -0.0717    0.0000 C   0  0  0  0  0  0  0  0  0  0  0  0
    3.0096    1.2768    0.0000 C   0  0  0  0  0  0  0  0  0  0  0  0
    2.0195   -1.2703    0.0000 C   0  0  0  0  0  0  0  0  0  0  0  0
    3.3028   -0.6254    0.0000 C   0  0  0  0  0  0  0  0  0  0  0  0
    4.2865    0.2280    0.0000 C   0  0  0  0  0  0  0  0  0  0  0  0
    3.7783    1.5765    0.0000 C   0  0  0  0  0  0  0  0  0  0  0  0
    2.3843   -2.0064    0.0000 C   0  0  0  0  0  0  0  0  0  0  0  0
    3.6676   -1.3615    0.0000 C   0  0  0  0  0  0  0  0  0  0  0  0
    4.4167    1.0553    0.0000 C   0  0  0  0  0  0  0  0  0  0  0  0
    3.2050   -2.0455    0.0000 C   0  0  0  0  0  0  0  0  0  0  0  0
  1  2  2  0  0  0  0
  2  3  1  0  0  0  0
  2  4  1  0  0  0  0
  3  5  1  0  0  0  0
  4  6  1  0  0  0  0
  5  7  2  0  0  0  0
  6  8  1  0  0  0  0
  6  9  1  0  0  0  0
  8 10  2  0  0  0  0
  8 11  1  0  0  0  0
  9 12  2  0  0  0  0
  9 13  1  0  0  0  0
 10 14  1  0  0  0  0
 11 15  2  0  0  0  0
 12 16  1  0  0  0  0
 13 17  2  0  0  0  0
 14 18  2  0  0  0  0
 16 19  2  0  0  0  0
  5  6  1  0  0  0  0
 15 18  1  0  0  0  0
 17 19  1  0  0  0  0
M  END

>  <name>
Phenytoin

>  <ROTATABLE_BONDCOUNT>
2

>  <HBDScore>
0.5

>  <dipole>
2.80

>  <logD>
2.11

>  <MPOScore>
5.445

>  <logDScore>
0.9450000000000001

>  <MW>
252.273

>  <charge_dist(7.4)>
-0.08

>  <CNS>
TRUE

>  <ArRings>
2

>  <HBD>
2

>  <BALABAN_INDEX>
1.76

>  <bpKa>
-9.05

>  <TPSAScore>
1.0

>  <MWScore>
1.0

>  <bpKaScore>
1.0

>  <logPScore>
1.0

>  <MPO_area>
81.96

>  <TPSA>
58.20

>  <logP>
2.15

$$$$

  Mrv1722703221715202D          

 34 38  0  0  0  0            999 V2000
    0.0000    0.0000    0.0000 F   0  0  0  0  0  0  0  0  0  0  0  0
    0.7686    0.2997    0.0000 C   0  0  0  0  0  0  0  0  0  0  0  0
    0.8990    1.1204    0.0000 C   0  0  0  0  0  0  0  0  0  0  0  0
    1.4005   -0.2215    0.0000 C   0  0  0  0  0  0  0  0  0  0  0  0
    1.6676    1.4201    0.0000 C   0  0  0  0  0  0  0  0  0  0  0  0
    2.1692    0.0782    0.0000 C   0  0  0  0  0  0  0  0  0  0  0  0
    2.2995    0.8990    0.0000 C   0  0  0  0  0  0  0  0  0  0  0  0
    3.0682    1.1986    0.0000 C   0  0  0  0  0  0  0  0  0  0  0  0
    3.1984    2.0194    0.0000 C   0  0  0  0  0  0  0  0  0  0  0  0
    3.7000    0.6775    0.0000 C   0  0  0  0  0  0  0  0  0  0  0  0
    3.9671    2.3190    0.0000 C   0  0  0  0  0  0  0  0  0  0  0  0
    2.5535    2.5535    0.0000 C   0  0  0  0  0  0  0  0  0  0  0  0
    4.4687    0.9771    0.0000 C   0  0  0  0  0  0  0  0  0  0  0  0
    4.0974    3.1398    0.0000 C   0  0  0  0  0  0  0  0  0  0  0  0
    2.6838    3.3743    0.0000 C   0  0  0  0  0  0  0  0  0  0  0  0
    5.1006    0.4560    0.0000 C   0  0  0  0  0  0  0  0  0  0  0  0
    3.4525    3.6739    0.0000 C   0  0  0  0  0  0  0  0  0  0  0  0
    5.8692    0.7557    0.0000 N   0  0  0  0  0  0  0  0  0  0  0  0
    3.5828    4.4947    0.0000 F   0  0  0  0  0  0  0  0  0  0  0  0
    6.5011    0.2345    0.0000 C   0  0  0  0  0  0  0  0  0  0  0  0
    5.9995    1.5764    0.0000 C   0  0  0  0  0  0  0  0  0  0  0  0
    7.2698    0.5342    0.0000 C   0  0  0  0  0  0  0  0  0  0  0  0
    6.7682    1.8761    0.0000 C   0  0  0  0  0  0  0  0  0  0  0  0
    7.4000    1.3549    0.0000 C   0  0  0  0  0  0  0  0  0  0  0  0
    8.1687    1.6546    0.0000 N   0  0  0  0  0  0  0  0  0  0  0  0
    8.3837    2.4624    0.0000 C   0  0  0  0  0  0  0  0  0  0  0  0
    8.8527    1.2051    0.0000 C   0  0  0  0  0  0  0  0  0  0  0  0
    7.8626    3.1137    0.0000 O   0  0  0  0  0  0  0  0  0  0  0  0
    9.2045    2.5079    0.0000 N   0  0  0  0  0  0  0  0  0  0  0  0
    9.4911    1.7263    0.0000 C   0  0  0  0  0  0  0  0  0  0  0  0
    8.9700    0.3908    0.0000 C   0  0  0  0  0  0  0  0  0  0  0  0
   10.2532    1.4331    0.0000 C   0  0  0  0  0  0  0  0  0  0  0  0
    9.7321    0.0977    0.0000 C   0  0  0  0  0  0  0  0  0  0  0  0
   10.3705    0.6188    0.0000 C   0  0  0  0  0  0  0  0  0  0  0  0
  1  2  1  0  0  0  0
  2  3  2  0  0  0  0
  2  4  1  0  0  0  0
  3  5  1  0  0  0  0
  4  6  2  0  0  0  0
  5  7  2  0  0  0  0
  7  8  1  0  0  0  0
  8  9  1  0  0  0  0
  8 10  1  0  0  0  0
  9 11  2  0  0  0  0
  9 12  1  0  0  0  0
 10 13  1  0  0  0  0
 11 14  1  0  0  0  0
 12 15  2  0  0  0  0
 13 16  1  0  0  0  0
 14 17  2  0  0  0  0
 16 18  1  0  0  0  0
 17 19  1  0  0  0  0
 18 20  1  0  0  0  0
 18 21  1  0  0  0  0
 20 22  1  0  0  0  0
 21 23  1  0  0  0  0
 22 24  1  0  0  0  0
 24 25  1  0  0  0  0
 25 26  1  0  0  0  0
 25 27  1  0  0  0  0
 26 28  2  0  0  0  0
 26 29  1  0  0  0  0
 27 30  2  0  0  0  0
 27 31  1  0  0  0  0
 30 32  1  0  0  0  0
 31 33  2  0  0  0  0
 32 34  2  0  0  0  0
  6  7  1  0  0  0  0
 15 17  1  0  0  0  0
 23 24  1  0  0  0  0
 29 30  1  0  0  0  0
 33 34  1  0  0  0  0
M  END

>  <name>
Pimozide

>  <ROTATABLE_BONDCOUNT>
7

>  <HBDScore>
0.8333333333333334

>  <dipole>
3.15

>  <logD>
4.80

>  <MPOScore>
2.69692619047619

>  <logDScore>
0.0

>  <MW>
461.557

>  <charge_dist(7.4)>
0.91

>  <CNS>
TRUE

>  <ArRings>
4

>  <HBD>
1

>  <BALABAN_INDEX>
1.03

>  <bpKa>
8.38

>  <TPSAScore>
0.7789999999999999

>  <MWScore>
0.2745928571428571

>  <bpKaScore>
0.8099999999999996

>  <logPScore>
0.0

>  <MPO_area>
25.33

>  <TPSA>
35.58

>  <logP>
5.83

$$$$

  Mrv1722703221715202D          

 25 27  0  0  0  0            999 V2000
    0.0000    0.0000    0.0000 S   0  0  0  0  0  0  0  0  0  0  0  0
   -0.5792    0.6052    0.0000 C   0  0  0  0  0  0  0  0  0  0  0  0
    0.7354    0.3709    0.0000 C   0  0  2  0  0  0  0  0  0  0  0  0
   -1.4056    0.4946    0.0000 O   0  0  0  0  0  0  0  0  0  0  0  0
   -0.1952    1.3406    0.0000 N   0  0  0  0  0  0  0  0  0  0  0  0
    0.6117    1.1974    0.0000 C   0  0  0  0  0  0  0  0  0  0  0  0
    1.4577   -0.0130    0.0000 C   0  0  0  0  0  0  0  0  0  0  0  0
    1.2039    1.7766    0.0000 O   0  0  0  0  0  0  0  0  0  0  0  0
    2.1540    0.4295    0.0000 C   0  0  0  0  0  0  0  0  0  0  0  0
    2.8764    0.0456    0.0000 C   0  0  0  0  0  0  0  0  0  0  0  0
    2.1215    1.2625    0.0000 C   0  0  0  0  0  0  0  0  0  0  0  0
    3.5727    0.4881    0.0000 C   0  0  0  0  0  0  0  0  0  0  0  0
    2.8178    1.7050    0.0000 C   0  0  0  0  0  0  0  0  0  0  0  0
    3.5402    1.3211    0.0000 C   0  0  0  0  0  0  0  0  0  0  0  0
    4.2365    1.7636    0.0000 O   0  0  0  0  0  0  0  0  0  0  0  0
    4.9588    1.3796    0.0000 C   0  0  0  0  0  0  0  0  0  0  0  0
    5.6552    1.8221    0.0000 C   0  0  0  0  0  0  0  0  0  0  0  0
    6.3775    1.4382    0.0000 C   0  0  0  0  0  0  0  0  0  0  0  0
    6.3970    0.6182    0.0000 N   0  0  0  0  0  0  0  0  0  0  0  0
    7.0738    1.8807    0.0000 C   0  0  0  0  0  0  0  0  0  0  0  0
    7.1194    0.2343    0.0000 C   0  0  0  0  0  0  0  0  0  0  0  0
    7.7962    1.4967    0.0000 C   0  0  0  0  0  0  0  0  0  0  0  0
    7.8157    0.6768    0.0000 C   0  0  0  0  0  0  0  0  0  0  0  0
    8.5380    0.2928    0.0000 C   0  0  0  0  0  0  0  0  0  0  0  0
    8.5576   -0.5271    0.0000 C   0  0  0  0  0  0  0  0  0  0  0  0
  1  2  1  0  0  0  0
  1  3  1  0  0  0  0
  2  4  2  0  0  0  0
  2  5  1  0  0  0  0
  3  6  1  0  0  0  0
  3  7  1  6  0  0  0
  6  8  2  0  0  0  0
  7  9  1  0  0  0  0
  9 10  2  0  0  0  0
  9 11  1  0  0  0  0
 10 12  1  0  0  0  0
 11 13  2  0  0  0  0
 12 14  2  0  0  0  0
 14 15  1  0  0  0  0
 15 16  1  0  0  0  0
 16 17  1  0  0  0  0
 17 18  1  0  0  0  0
 18 19  2  0  0  0  0
 18 20  1  0  0  0  0
 19 21  1  0  0  0  0
 20 22  2  0  0  0  0
 21 23  2  0  0  0  0
 23 24  1  0  0  0  0
 24 25  1  0  0  0  0
  5  6  1  0  0  0  0
 13 14  1  0  0  0  0
 22 23  1  0  0  0  0
M  END

>  <name>
Pioglitazone

>  <ROTATABLE_BONDCOUNT>
7

>  <HBDScore>
0.8333333333333334

>  <dipole>
2.76

>  <logD>
2.74

>  <MPOScore>
5.298333333333333

>  <logDScore>
0.6299999999999999

>  <MW>
356.44

>  <charge_dist(7.4)>
-0.84

>  <CNS>
TRUE

>  <ArRings>
2

>  <HBD>
1

>  <BALABAN_INDEX>
1.12

>  <bpKa>
5.6

>  <TPSAScore>
1.0

>  <MWScore>
1.0

>  <bpKaScore>
1.0

>  <logPScore>
0.835

>  <MPO_area>
78.1

>  <TPSA>
68.29

>  <logP>
3.33

$$$$

  Mrv1722703221715202D          

 14 15  0  0  0  0            999 V2000
    0.0000    0.0000    0.0000 O   0  0  0  0  0  0  0  0  0  0  0  0
    0.4912   -0.6529    0.0000 C   0  0  0  0  0  0  0  0  0  0  0  0
    0.1616   -1.4092    0.0000 N   0  0  0  0  0  0  0  0  0  0  0  0
    1.3057   -0.5430    0.0000 C   0  0  0  0  0  0  0  0  0  0  0  0
   -0.6658   -1.5061    0.0000 C   0  0  0  0  0  0  0  0  0  0  0  0
    0.6529   -2.0621    0.0000 C   0  0  0  0  0  0  0  0  0  0  0  0
    1.7970   -1.1958    0.0000 C   0  0  0  0  0  0  0  0  0  0  0  0
   -1.1700   -0.8403    0.0000 C   0  0  0  0  0  0  0  0  0  0  0  0
   -0.9955   -2.2624    0.0000 C   0  0  0  0  0  0  0  0  0  0  0  0
    1.4674   -1.9522    0.0000 C   0  0  0  0  0  0  0  0  0  0  0  0
   -1.9974   -0.9373    0.0000 C   0  0  0  0  0  0  0  0  0  0  0  0
   -1.8228   -2.3594    0.0000 C   0  0  0  0  0  0  0  0  0  0  0  0
    1.9586   -2.6050    0.0000 C   0  0  0  0  0  0  0  0  0  0  0  0
   -2.3271   -1.6936    0.0000 C   0  0  0  0  0  0  0  0  0  0  0  0
  1  2  2  0  0  0  0
  2  3  1  0  0  0  0
  2  4  1  0  0  0  0
  3  5  1  0  0  0  0
  3  6  1  0  0  0  0
  4  7  2  0  0  0  0
  5  8  2  0  0  0  0
  5  9  1  0  0  0  0
  6 10  2  0  0  0  0
  8 11  1  0  0  0  0
  9 12  2  0  0  0  0
 10 13  1  0  0  0  0
 11 14  2  0  0  0  0
  7 10  1  0  0  0  0
 12 14  1  0  0  0  0
M  END

>  <name>
Pirfenidone

>  <ROTATABLE_BONDCOUNT>
1

>  <HBDScore>
1.0

>  <dipole>
6.52

>  <logD>
2.14

>  <MPOScore>
4.9455

>  <logDScore>
0.9299999999999999

>  <MW>
185.226

>  <charge_dist(7.4)>
0.00

>  <CNS>
TRUE

>  <ArRings>
2

>  <HBD>
0

>  <BALABAN_INDEX>
1.92

>  <bpKa>
-1.25

>  <TPSAScore>
0.015499999999999937

>  <MWScore>
1.0

>  <bpKaScore>
1.0

>  <logPScore>
1.0

>  <MPO_area>
66.0

>  <TPSA>
20.31

>  <logP>
2.14

$$$$

  Mrv1722703221715202D          

 14 15  0  0  0  0            999 V2000
    0.0000    0.0000    0.0000 S   0  0  0  0  0  0  0  0  0  0  0  0
    0.5564    0.6012    0.0000 C   0  0  0  0  0  0  0  0  0  0  0  0
   -0.7482    0.3581    0.0000 C   0  0  0  0  0  0  0  0  0  0  0  0
    0.1599    1.3302    0.0000 N   0  0  0  0  0  0  0  0  0  0  0  0
    1.3622    0.4989    0.0000 N   0  0  0  0  0  0  0  0  0  0  0  0
   -0.6459    1.1768    0.0000 C   0  0  0  0  0  0  0  0  0  0  0  0
   -1.5093    0.0512    0.0000 C   0  0  0  0  0  0  0  0  0  0  0  0
   -1.3046    1.6820    0.0000 C   0  0  0  0  0  0  0  0  0  0  0  0
   -2.1680    0.5564    0.0000 C   0  0  2  0  0  0  0  0  0  0  0  0
   -2.0657    1.3750    0.0000 C   0  0  0  0  0  0  0  0  0  0  0  0
   -2.9291    0.2494    0.0000 N   0  0  0  0  0  0  0  0  0  0  0  0
   -3.5878    0.7547    0.0000 C   0  0  0  0  0  0  0  0  0  0  0  0
   -4.3488    0.4477    0.0000 C   0  0  0  0  0  0  0  0  0  0  0  0
   -5.0076    0.9529    0.0000 C   0  0  0  0  0  0  0  0  0  0  0  0
  1  2  1  0  0  0  0
  1  3  1  0  0  0  0
  2  4  2  0  0  0  0
  2  5  1  0  0  0  0
  3  6  2  0  0  0  0
  3  7  1  0  0  0  0
  6  8  1  0  0  0  0
  7  9  1  0  0  0  0
  8 10  1  0  0  0  0
  9 11  1  1  0  0  0
 11 12  1  0  0  0  0
 12 13  1  0  0  0  0
 13 14  1  0  0  0  0
  4  6  1  0  0  0  0
  9 10  1  0  0  0  0
M  END

>  <name>
Pramipexole

>  <ROTATABLE_BONDCOUNT>
3

>  <HBDScore>
0.5

>  <dipole>
1.21

>  <logD>
-0.98

>  <MPOScore>
4.5

>  <logDScore>
1.0

>  <MW>
211.33

>  <charge_dist(7.4)>
1.00

>  <CNS>
TRUE

>  <ArRings>
1

>  <HBD>
2

>  <BALABAN_INDEX>
1.79

>  <bpKa>
10.31

>  <TPSAScore>
1.0

>  <MWScore>
1.0

>  <bpKaScore>
0.0

>  <logPScore>
1.0

>  <MPO_area>
58.33

>  <TPSA>
50.94

>  <logP>
1.76

$$$$

  Mrv1722703221715202D          

 26 29  0  0  0  0            999 V2000
    0.0000    0.0000    0.0000 S   0  0  0  0  0  0  0  0  0  0  0  0
   -0.4895    0.6788    0.0000 C   0  0  0  0  0  0  0  0  0  0  0  0
    0.7832    0.2546    0.0000 C   0  0  0  0  0  0  0  0  0  0  0  0
   -1.3250    0.6919    0.0000 O   0  0  0  0  0  0  0  0  0  0  0  0
   -0.0065    1.3511    0.0000 C   0  0  0  0  0  0  0  0  0  0  0  0
    0.7832    1.0900    0.0000 C   0  0  0  0  0  0  0  0  0  0  0  0
    1.4947   -0.1566    0.0000 C   0  0  0  0  0  0  0  0  0  0  0  0
   -1.7427    1.4163    0.0000 C   0  0  0  0  0  0  0  0  0  0  0  0
    1.4947    1.5077    0.0000 C   0  0  0  0  0  0  0  0  0  0  0  0
    2.2061    0.2611    0.0000 C   0  0  0  0  0  0  0  0  0  0  0  0
   -1.3315    2.1408    0.0000 O   0  0  0  0  0  0  0  0  0  0  0  0
   -2.5782    1.4294    0.0000 C   0  0  0  0  0  0  0  0  0  0  0  0
    2.2061    1.0965    0.0000 N   0  0  0  0  0  0  0  0  0  0  0  0
    2.9175    1.5142    0.0000 C   0  0  2  0  0  0  0  0  0  0  0  0
    3.6289    1.1031    0.0000 C   0  0  0  0  0  0  0  0  0  0  0  0
    2.9175    2.3497    0.0000 C   0  0  0  0  0  0  0  0  0  0  0  0
    4.3404    1.5208    0.0000 C   0  0  0  0  0  0  0  0  0  0  0  0
    3.6159    0.2807    0.0000 C   0  0  0  0  0  0  0  0  0  0  0  0
    3.6289    2.7674    0.0000 O   0  0  0  0  0  0  0  0  0  0  0  0
    2.1930    2.7739    0.0000 C   0  0  0  0  0  0  0  0  0  0  0  0
    4.3404    2.3562    0.0000 F   0  0  0  0  0  0  0  0  0  0  0  0
    5.0518    1.1096    0.0000 C   0  0  0  0  0  0  0  0  0  0  0  0
    4.3273   -0.1305    0.0000 C   0  0  0  0  0  0  0  0  0  0  0  0
    1.7753    3.4984    0.0000 C   0  0  0  0  0  0  0  0  0  0  0  0
    1.3576    2.7870    0.0000 C   0  0  0  0  0  0  0  0  0  0  0  0
    5.0387    0.2872    0.0000 C   0  0  0  0  0  0  0  0  0  0  0  0
  1  2  1  0  0  0  0
  1  3  1  0  0  0  0
  2  4  1  0  0  0  0
  2  5  2  0  0  0  0
  3  6  2  0  0  0  0
  3  7  1  0  0  0  0
  4  8  1  0  0  0  0
  6  9  1  0  0  0  0
  7 10  1  0  0  0  0
  8 11  2  0  0  0  0
  8 12  1  0  0  0  0
  9 13  1  0  0  0  0
 14 13  1  1  0  0  0
 14 15  1  0  0  0  0
 14 16  1  0  0  0  0
 15 17  2  0  0  0  0
 15 18  1  0  0  0  0
 16 19  2  0  0  0  0
 16 20  1  0  0  0  0
 17 21  1  0  0  0  0
 17 22  1  0  0  0  0
 18 23  2  0  0  0  0
 20 24  1  0  0  0  0
 20 25  1  0  0  0  0
 22 26  2  0  0  0  0
  5  6  1  0  0  0  0
 10 13  1  0  0  0  0
 23 26  1  0  0  0  0
 24 25  1  0  0  0  0
M  END

>  <name>
Prasugrel

>  <ROTATABLE_BONDCOUNT>
6

>  <HBDScore>
1.0

>  <dipole>
4.43

>  <logD>
4.30

>  <MPOScore>
4.2490000000000006

>  <logDScore>
0.0

>  <MW>
373.44

>  <charge_dist(7.4)>
0.01

>  <CNS>
TRUE

>  <ArRings>
2

>  <HBD>
0

>  <BALABAN_INDEX>
1.24

>  <bpKa>
5.12

>  <TPSAScore>
1.0

>  <MWScore>
0.904

>  <bpKaScore>
1.0

>  <logPScore>
0.3450000000000002

>  <MPO_area>
53.6

>  <TPSA>
46.61

>  <logP>
4.31

$$$$

  Mrv1722703221715202D          

 23 26  0  0  0  0            999 V2000
    0.0000    0.0000    0.0000 O   0  0  0  0  0  0  0  0  0  0  0  0
   -0.3665    0.7394    0.0000 C   0  0  0  0  0  0  0  0  0  0  0  0
    0.0836    1.4274    0.0000 N   0  0  0  0  0  0  0  0  0  0  0  0
   -1.1895    0.7973    0.0000 C   0  0  0  0  0  0  0  0  0  0  0  0
   -0.2829    2.1667    0.0000 C   0  0  2  0  0  0  0  0  0  0  0  0
    0.8937    1.3823    0.0000 C   0  0  0  0  0  0  0  0  0  0  0  0
   -1.5559    1.5367    0.0000 N   0  0  0  0  0  0  0  0  0  0  0  0
    0.1672    2.8547    0.0000 C   0  0  0  0  0  0  0  0  0  0  0  0
   -1.1059    2.2246    0.0000 C   0  0  0  0  0  0  0  0  0  0  0  0
    1.3437    2.0703    0.0000 C   0  0  0  0  0  0  0  0  0  0  0  0
   -2.3789    1.5945    0.0000 C   0  0  0  0  0  0  0  0  0  0  0  0
    0.9773    2.8097    0.0000 C   0  0  0  0  0  0  0  0  0  0  0  0
   -0.1993    3.5941    0.0000 C   0  0  0  0  0  0  0  0  0  0  0  0
   -2.8418    0.9194    0.0000 O   0  0  0  0  0  0  0  0  0  0  0  0
   -2.7454    2.3339    0.0000 C   0  0  0  0  0  0  0  0  0  0  0  0
    1.4274    3.4976    0.0000 C   0  0  0  0  0  0  0  0  0  0  0  0
    0.2508    4.2821    0.0000 C   0  0  0  0  0  0  0  0  0  0  0  0
   -2.2953    3.0219    0.0000 C   0  0  0  0  0  0  0  0  0  0  0  0
   -3.5684    2.3918    0.0000 C   0  0  0  0  0  0  0  0  0  0  0  0
    1.0609    4.2371    0.0000 C   0  0  0  0  0  0  0  0  0  0  0  0
   -2.6618    3.7612    0.0000 C   0  0  0  0  0  0  0  0  0  0  0  0
   -3.9349    3.1311    0.0000 C   0  0  0  0  0  0  0  0  0  0  0  0
   -3.4848    3.8191    0.0000 C   0  0  0  0  0  0  0  0  0  0  0  0
  1  2  2  0  0  0  0
  2  3  1  0  0  0  0
  2  4  1  0  0  0  0
  5  3  1  1  0  0  0
  3  6  1  0  0  0  0
  4  7  1  0  0  0  0
  5  8  1  0  0  0  0
  5  9  1  0  0  0  0
  6 10  1  0  0  0  0
  7 11  1  0  0  0  0
  8 12  2  0  0  0  0
  8 13  1  0  0  0  0
 11 14  2  0  0  0  0
 11 15  1  0  0  0  0
 12 16  1  0  0  0  0
 13 17  2  0  0  0  0
 15 18  1  0  0  0  0
 15 19  1  0  0  0  0
 16 20  2  0  0  0  0
 18 21  1  0  0  0  0
 19 22  1  0  0  0  0
 21 23  1  0  0  0  0
  7  9  1  0  0  0  0
 10 12  1  0  0  0  0
 17 20  1  0  0  0  0
 22 23  1  0  0  0  0
M  END

>  <name>
Praziquantel

>  <ROTATABLE_BONDCOUNT>
1

>  <HBDScore>
1.0

>  <dipole>
2.44

>  <logD>
2.30

>  <MPOScore>
5.85

>  <logDScore>
0.8500000000000001

>  <MW>
312.413

>  <charge_dist(7.4)>
0.00

>  <CNS>
TRUE

>  <ArRings>
1

>  <HBD>
0

>  <BALABAN_INDEX>
1.40

>  <bpKa>
-0.6

>  <TPSAScore>
1.0

>  <MWScore>
1.0

>  <bpKaScore>
1.0

>  <logPScore>
1.0

>  <MPO_area>
95.0

>  <TPSA>
40.62

>  <logP>
2.30

$$$$

  Mrv1722703221715202D          

 17 17  0  0  0  0            999 V2000
    0.0000    0.0000    0.0000 O   0  0  0  0  0  0  0  0  0  0  0  0
    0.1889    0.8058    0.0000 C   0  0  0  0  0  0  0  0  0  0  0  0
   -0.4155    1.3788    0.0000 N   0  0  0  0  0  0  0  0  0  0  0  0
    0.9696    1.0451    0.0000 C   0  0  0  0  0  0  0  0  0  0  0  0
   -1.2088    1.1521    0.0000 C   0  0  0  0  0  0  0  0  0  0  0  0
    1.1584    1.8510    0.0000 C   0  0  0  0  0  0  0  0  0  0  0  0
    1.5613    0.4848    0.0000 C   0  0  0  0  0  0  0  0  0  0  0  0
   -1.8132    1.7251    0.0000 C   0  0  0  0  0  0  0  0  0  0  0  0
    1.9391    2.0902    0.0000 C   0  0  0  0  0  0  0  0  0  0  0  0
    2.3420    0.7240    0.0000 C   0  0  0  0  0  0  0  0  0  0  0  0
   -2.6064    1.4984    0.0000 N   0  0  0  0  0  0  0  0  0  0  0  0
    2.5309    1.5299    0.0000 C   0  0  0  0  0  0  0  0  0  0  0  0
   -3.2108    2.0713    0.0000 C   0  0  0  0  0  0  0  0  0  0  0  0
   -2.8079    0.7051    0.0000 C   0  0  0  0  0  0  0  0  0  0  0  0
    3.3116    1.7691    0.0000 N   0  0  0  0  0  0  0  0  0  0  0  0
   -4.0041    1.8447    0.0000 C   0  0  0  0  0  0  0  0  0  0  0  0
   -3.6012    0.4785    0.0000 C   0  0  0  0  0  0  0  0  0  0  0  0
  1  2  2  0  0  0  0
  2  3  1  0  0  0  0
  2  4  1  0  0  0  0
  3  5  1  0  0  0  0
  4  6  2  0  0  0  0
  4  7  1  0  0  0  0
  5  8  1  0  0  0  0
  6  9  1  0  0  0  0
  7 10  2  0  0  0  0
  8 11  1  0  0  0  0
  9 12  2  0  0  0  0
 11 13  1  0  0  0  0
 11 14  1  0  0  0  0
 12 15  1  0  0  0  0
 13 16  1  0  0  0  0
 14 17  1  0  0  0  0
 10 12  1  0  0  0  0
M  END

>  <name>
Procainamide

>  <ROTATABLE_BONDCOUNT>
6

>  <HBDScore>
0.5

>  <dipole>
13.05

>  <logD>
-0.70

>  <MPOScore>
4.98

>  <logDScore>
1.0

>  <MW>
235.331

>  <charge_dist(7.4)>
0.98

>  <CNS>
TRUE

>  <ArRings>
1

>  <HBD>
2

>  <BALABAN_INDEX>
2.01

>  <bpKa>
9.04

>  <TPSAScore>
1.0

>  <MWScore>
1.0

>  <bpKaScore>
0.4800000000000004

>  <logPScore>
1.0

>  <MPO_area>
70.33

>  <TPSA>
58.36

>  <logP>
0.95

$$$$

  Mrv1722703221715202D          

 16 16  0  0  0  0            999 V2000
    0.0000    0.0000    0.0000 O   0  0  0  0  0  0  0  0  0  0  0  0
    0.2285    0.7996    0.0000 C   0  0  0  0  0  0  0  0  0  0  0  0
   -0.3490    1.4088    0.0000 N   0  0  0  0  0  0  0  0  0  0  0  0
    1.0281    1.0027    0.0000 C   0  0  0  0  0  0  0  0  0  0  0  0
   -1.1613    1.2184    0.0000 C   0  0  0  0  0  0  0  0  0  0  0  0
    1.2565    1.8023    0.0000 C   0  0  0  0  0  0  0  0  0  0  0  0
    1.5928    0.4061    0.0000 C   0  0  0  0  0  0  0  0  0  0  0  0
   -1.7388    1.8276    0.0000 C   0  0  0  0  0  0  0  0  0  0  0  0
   -1.4025    0.4315    0.0000 C   0  0  0  0  0  0  0  0  0  0  0  0
    2.0561    2.0054    0.0000 C   0  0  0  0  0  0  0  0  0  0  0  0
    2.3925    0.6092    0.0000 C   0  0  0  0  0  0  0  0  0  0  0  0
    2.6209    1.4088    0.0000 C   0  0  0  0  0  0  0  0  0  0  0  0
    3.4205    1.6119    0.0000 C   0  0  0  0  0  0  0  0  0  0  0  0
    3.9853    1.0154    0.0000 N   0  0  0  0  0  0  0  0  0  0  0  0
    4.7849    1.2184    0.0000 N   0  0  0  0  0  0  0  0  0  0  0  0
    5.3497    0.6219    0.0000 C   0  0  0  0  0  0  0  0  0  0  0  0
  1  2  2  0  0  0  0
  2  3  1  0  0  0  0
  2  4  1  0  0  0  0
  3  5  1  0  0  0  0
  4  6  2  0  0  0  0
  4  7  1  0  0  0  0
  5  8  1  0  0  0  0
  5  9  1  0  0  0  0
  6 10  1  0  0  0  0
  7 11  2  0  0  0  0
 10 12  2  0  0  0  0
 12 13  1  0  0  0  0
 13 14  1  0  0  0  0
 14 15  1  0  0  0  0
 15 16  1  0  0  0  0
 11 12  1  0  0  0  0
M  END

>  <name>
Procarbazine

>  <ROTATABLE_BONDCOUNT>
5

>  <HBDScore>
0.16666666666666674

>  <dipole>
5.86

>  <logD>
0.98

>  <MPOScore>
5.166666666666667

>  <logDScore>
1.0

>  <MW>
221.304

>  <charge_dist(7.4)>
0.01

>  <CNS>
TRUE

>  <ArRings>
1

>  <HBD>
3

>  <BALABAN_INDEX>
2.20

>  <bpKa>
5.56

>  <TPSAScore>
1.0

>  <MWScore>
1.0

>  <bpKaScore>
1.0

>  <logPScore>
1.0

>  <MPO_area>
72.22

>  <TPSA>
53.16

>  <logP>
0.99

$$$$

  Mrv1722703221715202D          

 25 28  0  0  0  0            999 V2000
    0.0000    0.0000    0.0000 Cl  0  0  0  0  0  0  0  0  0  0  0  0
    0.1662   -0.8056    0.0000 C   0  0  0  0  0  0  0  0  0  0  0  0
    0.9527   -1.0550    0.0000 C   0  0  0  0  0  0  0  0  0  0  0  0
   -0.4540   -1.3555    0.0000 C   0  0  0  0  0  0  0  0  0  0  0  0
    1.1189   -1.8605    0.0000 C   0  0  0  0  0  0  0  0  0  0  0  0
   -0.2877   -2.1611    0.0000 C   0  0  0  0  0  0  0  0  0  0  0  0
    1.9053   -2.1099    0.0000 N   0  0  0  0  0  0  0  0  0  0  0  0
    0.4987   -2.4104    0.0000 C   0  0  0  0  0  0  0  0  0  0  0  0
    2.0716   -2.9155    0.0000 C   0  0  0  0  0  0  0  0  0  0  0  0
    2.5127   -1.5473    0.0000 C   0  0  0  0  0  0  0  0  0  0  0  0
    0.6649   -3.2160    0.0000 S   0  0  0  0  0  0  0  0  0  0  0  0
    1.4513   -3.4654    0.0000 C   0  0  0  0  0  0  0  0  0  0  0  0
    2.8580   -3.1649    0.0000 C   0  0  0  0  0  0  0  0  0  0  0  0
    3.2991   -1.7966    0.0000 C   0  0  0  0  0  0  0  0  0  0  0  0
    1.6176   -4.2710    0.0000 C   0  0  0  0  0  0  0  0  0  0  0  0
    3.0242   -3.9704    0.0000 C   0  0  0  0  0  0  0  0  0  0  0  0
    3.9065   -1.2340    0.0000 C   0  0  0  0  0  0  0  0  0  0  0  0
    2.4040   -4.5203    0.0000 C   0  0  0  0  0  0  0  0  0  0  0  0
    4.6930   -1.4833    0.0000 N   0  0  0  0  0  0  0  0  0  0  0  0
    4.8592   -2.2889    0.0000 C   0  0  0  0  0  0  0  0  0  0  0  0
    5.3004   -0.9207    0.0000 C   0  0  0  0  0  0  0  0  0  0  0  0
    5.6456   -2.5383    0.0000 C   0  0  0  0  0  0  0  0  0  0  0  0
    6.0868   -1.1701    0.0000 C   0  0  0  0  0  0  0  0  0  0  0  0
    6.2530   -1.9756    0.0000 N   0  0  0  0  0  0  0  0  0  0  0  0
    7.0394   -2.2250    0.0000 C   0  0  0  0  0  0  0  0  0  0  0  0
  1  2  1  0  0  0  0
  2  3  2  0  0  0  0
  2  4  1  0  0  0  0
  3  5  1  0  0  0  0
  4  6  2  0  0  0  0
  5  7  1  0  0  0  0
  5  8  2  0  0  0  0
  7  9  1  0  0  0  0
  7 10  1  0  0  0  0
  8 11  1  0  0  0  0
  9 12  2  0  0  0  0
  9 13  1  0  0  0  0
 10 14  1  0  0  0  0
 12 15  1  0  0  0  0
 13 16  2  0  0  0  0
 14 17  1  0  0  0  0
 15 18  2  0  0  0  0
 17 19  1  0  0  0  0
 19 20  1  0  0  0  0
 19 21  1  0  0  0  0
 20 22  1  0  0  0  0
 21 23  1  0  0  0  0
 22 24  1  0  0  0  0
 24 25  1  0  0  0  0
  6  8  1  0  0  0  0
 11 12  1  0  0  0  0
 16 18  1  0  0  0  0
 23 24  1  0  0  0  0
M  END

>  <name>
Prochlorperazine

>  <ROTATABLE_BONDCOUNT>
4

>  <HBDScore>
1.0

>  <dipole>
3.26

>  <logD>
3.69

>  <MPOScore>
3.3654285714285717

>  <logDScore>
0.15500000000000003

>  <MW>
373.94

>  <charge_dist(7.4)>
0.80

>  <CNS>
TRUE

>  <ArRings>
2

>  <HBD>
0

>  <BALABAN_INDEX>
1.21

>  <bpKa>
7.99

>  <TPSAScore>
0.0

>  <MWScore>
0.9004285714285715

>  <bpKaScore>
1.0

>  <logPScore>
0.31000000000000005

>  <MPO_area>
37.13

>  <TPSA>
9.72

>  <logP>
4.38

$$$$

  Mrv1722703221715202D          

 13 13  0  0  0  0            999 V2000
    0.0000    0.0000    0.0000 O   0  0  0  0  0  0  0  0  0  0  0  0
   -0.8305    0.0065    0.0000 C   0  0  0  0  0  0  0  0  0  0  0  0
   -1.2459   -0.7008    0.0000 C   0  0  0  0  0  0  0  0  0  0  0  0
   -1.2459    0.7267    0.0000 C   0  0  0  0  0  0  0  0  0  0  0  0
   -2.0764   -0.6943    0.0000 C   0  0  0  0  0  0  0  0  0  0  0  0
   -0.8435   -1.4080    0.0000 C   0  0  0  0  0  0  0  0  0  0  0  0
   -2.0764    0.7332    0.0000 C   0  0  0  0  0  0  0  0  0  0  0  0
   -0.8435    1.4470    0.0000 C   0  0  0  0  0  0  0  0  0  0  0  0
   -2.4982    0.0260    0.0000 C   0  0  0  0  0  0  0  0  0  0  0  0
   -1.2588   -2.1153    0.0000 C   0  0  0  0  0  0  0  0  0  0  0  0
   -0.0260   -1.4015    0.0000 C   0  0  0  0  0  0  0  0  0  0  0  0
   -0.0260    1.4535    0.0000 C   0  0  0  0  0  0  0  0  0  0  0  0
   -1.2588    2.1672    0.0000 C   0  0  0  0  0  0  0  0  0  0  0  0
  1  2  1  0  0  0  0
  2  3  2  0  0  0  0
  2  4  1  0  0  0  0
  3  5  1  0  0  0  0
  3  6  1  0  0  0  0
  4  7  2  0  0  0  0
  4  8  1  0  0  0  0
  5  9  2  0  0  0  0
  6 10  1  0  0  0  0
  6 11  1  0  0  0  0
  8 12  1  0  0  0  0
  8 13  1  0  0  0  0
  7  9  1  0  0  0  0
M  END

>  <name>
Propofol

>  <ROTATABLE_BONDCOUNT>
2

>  <HBDScore>
0.8333333333333334

>  <dipole>
3.08

>  <logD>
4.16

>  <MPOScore>
3.2648333333333333

>  <logDScore>
0.0

>  <MW>
178.275

>  <charge_dist(7.4)>
-0.00

>  <CNS>
TRUE

>  <ArRings>
1

>  <HBD>
1

>  <BALABAN_INDEX>
2.40

>  <bpKa>
-4.98

>  <TPSAScore>
0.011500000000000022

>  <MWScore>
1.0

>  <bpKaScore>
1.0

>  <logPScore>
0.41999999999999993

>  <MPO_area>
36.47

>  <TPSA>
20.23

>  <logP>
4.16

$$$$

  Mrv1722703221715202D          

 19 20  0  0  0  0            999 V2000
    0.0000    0.0000    0.0000 O   0  0  0  0  0  0  0  0  0  0  0  0
    0.6884    0.4546    0.0000 C   0  0  0  0  0  0  0  0  0  0  0  0
   -0.7404    0.3832    0.0000 C   0  0  0  0  0  0  0  0  0  0  0  0
    1.4158    0.0844    0.0000 C   0  0  0  0  0  0  0  0  0  0  0  0
    0.6365    1.2859    0.0000 C   0  0  0  0  0  0  0  0  0  0  0  0
   -1.4418   -0.0584    0.0000 C   0  0  1  0  0  0  0  0  0  0  0  0
    2.1043    0.5391    0.0000 C   0  0  0  0  0  0  0  0  0  0  0  0
    1.4548   -0.7339    0.0000 C   0  0  0  0  0  0  0  0  0  0  0  0
    1.3249    1.7406    0.0000 C   0  0  0  0  0  0  0  0  0  0  0  0
   -1.4028   -0.8768    0.0000 O   0  0  0  0  0  0  0  0  0  0  0  0
   -2.1822    0.3247    0.0000 C   0  0  0  0  0  0  0  0  0  0  0  0
    2.0523    1.3703    0.0000 C   0  0  0  0  0  0  0  0  0  0  0  0
    2.8316    0.1689    0.0000 C   0  0  0  0  0  0  0  0  0  0  0  0
    2.1822   -1.1041    0.0000 C   0  0  0  0  0  0  0  0  0  0  0  0
   -2.8836   -0.1169    0.0000 N   0  0  0  0  0  0  0  0  0  0  0  0
    2.8706   -0.6495    0.0000 C   0  0  0  0  0  0  0  0  0  0  0  0
   -3.6240    0.2663    0.0000 C   0  0  0  0  0  0  0  0  0  0  0  0
   -4.3254   -0.1754    0.0000 C   0  0  0  0  0  0  0  0  0  0  0  0
   -3.6760    1.0976    0.0000 C   0  0  0  0  0  0  0  0  0  0  0  0
  1  2  1  0  0  0  0
  1  3  1  0  0  0  0
  2  4  1  0  0  0  0
  2  5  2  0  0  0  0
  3  6  1  0  0  0  0
  4  7  2  0  0  0  0
  4  8  1  0  0  0  0
  5  9  1  0  0  0  0
  6 10  1  1  0  0  0
  6 11  1  0  0  0  0
  7 12  1  0  0  0  0
  7 13  1  0  0  0  0
  8 14  2  0  0  0  0
 11 15  1  0  0  0  0
 13 16  2  0  0  0  0
 15 17  1  0  0  0  0
 17 18  1  0  0  0  0
 17 19  1  0  0  0  0
  9 12  2  0  0  0  0
 14 16  1  0  0  0  0
M  END

>  <name>
Propranolol

>  <ROTATABLE_BONDCOUNT>
6

>  <HBDScore>
0.5

>  <dipole>
7.22

>  <logD>
0.36

>  <MPOScore>
4.665

>  <logDScore>
1.0

>  <MW>
259.349

>  <charge_dist(7.4)>
0.99

>  <CNS>
TRUE

>  <ArRings>
2

>  <HBD>
2

>  <BALABAN_INDEX>
1.54

>  <bpKa>
9.67

>  <TPSAScore>
1.0

>  <MWScore>
1.0

>  <bpKaScore>
0.16500000000000004

>  <logPScore>
1.0

>  <MPO_area>
62.46

>  <TPSA>
41.49

>  <logP>
2.58

$$$$

  Mrv1722703221715202D          

 12 12  0  0  0  0            999 V2000
    0.0000    0.0000    0.0000 O   0  0  0  0  0  0  0  0  0  0  0  0
    0.0585    0.8314    0.0000 C   0  0  2  0  0  0  0  0  0  0  0  0
    0.7989    1.1952    0.0000 C   0  0  0  0  0  0  0  0  0  0  0  0
   -0.6300    1.3056    0.0000 C   0  0  2  0  0  0  0  0  0  0  0  0
    0.8574    2.0266    0.0000 C   0  0  0  0  0  0  0  0  0  0  0  0
    1.4745    0.7340    0.0000 C   0  0  0  0  0  0  0  0  0  0  0  0
   -0.5716    2.1370    0.0000 N   0  0  0  0  0  0  0  0  0  0  0  0
   -1.3835    0.9548    0.0000 C   0  0  0  0  0  0  0  0  0  0  0  0
    1.5979    2.3903    0.0000 C   0  0  0  0  0  0  0  0  0  0  0  0
    2.2149    1.0977    0.0000 C   0  0  0  0  0  0  0  0  0  0  0  0
   -1.2601    2.6111    0.0000 C   0  0  0  0  0  0  0  0  0  0  0  0
    2.2734    1.9292    0.0000 C   0  0  0  0  0  0  0  0  0  0  0  0
  2  1  1  1  0  0  0
  2  3  1  0  0  0  0
  2  4  1  0  0  0  0
  3  5  2  0  0  0  0
  3  6  1  0  0  0  0
  4  7  1  1  0  0  0
  4  8  1  0  0  0  0
  5  9  1  0  0  0  0
  6 10  2  0  0  0  0
  7 11  1  0  0  0  0
  9 12  2  0  0  0  0
 10 12  1  0  0  0  0
M  END

>  <name>
Pseudoephedrine

>  <ROTATABLE_BONDCOUNT>
3

>  <HBDScore>
0.5

>  <dipole>
2.20

>  <logD>
-0.78

>  <MPOScore>
4.353

>  <logDScore>
1.0

>  <MW>
165.236

>  <charge_dist(7.4)>
0.99

>  <CNS>
TRUE

>  <ArRings>
1

>  <HBD>
2

>  <BALABAN_INDEX>
2.33

>  <bpKa>
9.52

>  <TPSAScore>
0.613

>  <MWScore>
1.0

>  <bpKaScore>
0.2400000000000002

>  <logPScore>
1.0

>  <MPO_area>
54.66

>  <TPSA>
32.26

>  <logP>
1.32

$$$$

  Mrv1722703221715202D          

  9  9  0  0  0  0            999 V2000
    0.0000    0.0000    0.0000 O   0  0  0  0  0  0  0  0  0  0  0  0
   -0.4189   -0.7025    0.0000 C   0  0  0  0  0  0  0  0  0  0  0  0
   -0.0129   -1.4050    0.0000 N   0  0  0  0  0  0  0  0  0  0  0  0
   -1.2439   -0.6961    0.0000 C   0  0  0  0  0  0  0  0  0  0  0  0
   -1.6564   -1.3986    0.0000 N   0  0  0  0  0  0  0  0  0  0  0  0
   -1.6564    0.0193    0.0000 C   0  0  0  0  0  0  0  0  0  0  0  0
   -2.4814   -1.3922    0.0000 C   0  0  0  0  0  0  0  0  0  0  0  0
   -2.4814    0.0258    0.0000 N   0  0  0  0  0  0  0  0  0  0  0  0
   -2.8939   -0.6767    0.0000 C   0  0  0  0  0  0  0  0  0  0  0  0
  1  2  2  0  0  0  0
  2  3  1  0  0  0  0
  2  4  1  0  0  0  0
  4  5  2  0  0  0  0
  4  6  1  0  0  0  0
  5  7  1  0  0  0  0
  6  8  2  0  0  0  0
  7  9  2  0  0  0  0
  8  9  1  0  0  0  0
M  END

>  <name>
Pyrazinamide

>  <ROTATABLE_BONDCOUNT>
1

>  <HBDScore>
0.8333333333333334

>  <dipole>
4.21

>  <logD>
-1.23

>  <MPOScore>
5.833333333333333

>  <logDScore>
1.0

>  <MW>
123.115

>  <charge_dist(7.4)>
-0.00

>  <CNS>
TRUE

>  <ArRings>
1

>  <HBD>
1

>  <BALABAN_INDEX>
1.98

>  <bpKa>
-0.67

>  <TPSAScore>
1.0

>  <MWScore>
1.0

>  <bpKaScore>
1.0

>  <logPScore>
1.0

>  <MPO_area>
94.44

>  <TPSA>
68.87

>  <logP>
-1.23

$$$$

  Mrv1722703221715202D          

 21 22  0  0  0  0            999 V2000
    0.0000    0.0000    0.0000 O   0  0  0  0  0  0  0  0  0  0  0  0
    0.7704    0.2953    0.0000 C   0  0  0  0  0  0  0  0  0  0  0  0
   -0.6420    0.5328    0.0000 C   0  0  0  0  0  0  0  0  0  0  0  0
    0.8988    1.1171    0.0000 C   0  0  0  0  0  0  0  0  0  0  0  0
    1.3995   -0.2247    0.0000 C   0  0  0  0  0  0  0  0  0  0  0  0
    1.6691    1.4124    0.0000 C   0  0  0  0  0  0  0  0  0  0  0  0
    2.1699    0.0706    0.0000 C   0  0  0  0  0  0  0  0  0  0  0  0
    2.2983    0.8924    0.0000 C   0  0  0  0  0  0  0  0  0  0  0  0
    3.0687    1.1876    0.0000 C   0  0  0  0  0  0  0  0  0  0  0  0
    3.6978    0.6677    0.0000 N   0  0  0  0  0  0  0  0  0  0  0  0
    3.5566   -0.1412    0.0000 C   0  0  0  0  0  0  0  0  0  0  0  0
    4.4682    0.9630    0.0000 C   0  0  0  0  0  0  0  0  0  0  0  0
    2.7734   -0.4237    0.0000 N   0  0  0  0  0  0  0  0  0  0  0  0
    4.1857   -0.6612    0.0000 C   0  0  0  0  0  0  0  0  0  0  0  0
    5.0974    0.4429    0.0000 C   0  0  0  0  0  0  0  0  0  0  0  0
    2.6321   -1.2326    0.0000 C   0  0  0  0  0  0  0  0  0  0  0  0
    4.0445   -1.4701    0.0000 C   0  0  0  0  0  0  0  0  0  0  0  0
    5.8677    0.7383    0.0000 N   0  0  0  0  0  0  0  0  0  0  0  0
    3.2613   -1.7526    0.0000 C   0  0  0  0  0  0  0  0  0  0  0  0
    6.4969    0.2183    0.0000 C   0  0  0  0  0  0  0  0  0  0  0  0
    5.9962    1.5600    0.0000 C   0  0  0  0  0  0  0  0  0  0  0  0
  1  2  1  0  0  0  0
  1  3  1  0  0  0  0
  2  4  2  0  0  0  0
  2  5  1  0  0  0  0
  4  6  1  0  0  0  0
  5  7  2  0  0  0  0
  6  8  2  0  0  0  0
  8  9  1  0  0  0  0
  9 10  1  0  0  0  0
 10 11  1  0  0  0  0
 10 12  1  0  0  0  0
 11 13  2  0  0  0  0
 11 14  1  0  0  0  0
 12 15  1  0  0  0  0
 13 16  1  0  0  0  0
 14 17  2  0  0  0  0
 15 18  1  0  0  0  0
 16 19  2  0  0  0  0
 18 20  1  0  0  0  0
 18 21  1  0  0  0  0
  7  8  1  0  0  0  0
 17 19  1  0  0  0  0
M  END

>  <name>
Pyrilamine

>  <ROTATABLE_BONDCOUNT>
7

>  <HBDScore>
1.0

>  <dipole>
6.20

>  <logD>
1.66

>  <MPOScore>
5.029999999999999

>  <logDScore>
1.0

>  <MW>
285.391

>  <charge_dist(7.4)>
0.97

>  <CNS>
TRUE

>  <ArRings>
2

>  <HBD>
0

>  <BALABAN_INDEX>
1.74

>  <bpKa>
8.76

>  <TPSAScore>
0.4300000000000001

>  <MWScore>
1.0

>  <bpKaScore>
0.6200000000000001

>  <logPScore>
0.98

>  <MPO_area>
71.4

>  <TPSA>
28.60

>  <logP>
3.04

$$$$

  Mrv1722703221715202D          

 17 18  0  0  0  0            999 V2000
    0.0000    0.0000    0.0000 Cl  0  0  0  0  0  0  0  0  0  0  0  0
   -0.8234    0.0515    0.0000 C   0  0  0  0  0  0  0  0  0  0  0  0
   -1.2802   -0.6240    0.0000 C   0  0  0  0  0  0  0  0  0  0  0  0
   -1.1965    0.7912    0.0000 C   0  0  0  0  0  0  0  0  0  0  0  0
   -2.1036   -0.5725    0.0000 C   0  0  0  0  0  0  0  0  0  0  0  0
   -2.0199    0.8427    0.0000 C   0  0  0  0  0  0  0  0  0  0  0  0
   -2.4766    0.1673    0.0000 C   0  0  0  0  0  0  0  0  0  0  0  0
   -3.3000    0.2187    0.0000 C   0  0  0  0  0  0  0  0  0  0  0  0
   -3.6732    0.9585    0.0000 C   0  0  0  0  0  0  0  0  0  0  0  0
   -3.7568   -0.4567    0.0000 C   0  0  0  0  0  0  0  0  0  0  0  0
   -4.4966    1.0099    0.0000 N   0  0  0  0  0  0  0  0  0  0  0  0
   -3.2293    1.6468    0.0000 N   0  0  0  0  0  0  0  0  0  0  0  0
   -4.5802   -0.4053    0.0000 N   0  0  0  0  0  0  0  0  0  0  0  0
   -3.3965   -1.1837    0.0000 C   0  0  0  0  0  0  0  0  0  0  0  0
   -4.9533    0.3345    0.0000 C   0  0  0  0  0  0  0  0  0  0  0  0
   -3.8533   -1.8591    0.0000 C   0  0  0  0  0  0  0  0  0  0  0  0
   -5.7767    0.3860    0.0000 N   0  0  0  0  0  0  0  0  0  0  0  0
  1  2  1  0  0  0  0
  2  3  2  0  0  0  0
  2  4  1  0  0  0  0
  3  5  1  0  0  0  0
  4  6  2  0  0  0  0
  5  7  2  0  0  0  0
  7  8  1  0  0  0  0
  8  9  2  0  0  0  0
  8 10  1  0  0  0  0
  9 11  1  0  0  0  0
  9 12  1  0  0  0  0
 10 13  2  0  0  0  0
 10 14  1  0  0  0  0
 11 15  2  0  0  0  0
 14 16  1  0  0  0  0
 15 17  1  0  0  0  0
  6  7  1  0  0  0  0
 13 15  1  0  0  0  0
M  END

>  <name>
Pyrimethamine

>  <ROTATABLE_BONDCOUNT>
2

>  <HBDScore>
0.5

>  <dipole>
3.74

>  <logD>
2.23

>  <MPOScore>
5.385

>  <logDScore>
0.885

>  <MW>
248.71

>  <charge_dist(7.4)>
0.70

>  <CNS>
TRUE

>  <ArRings>
2

>  <HBD>
2

>  <BALABAN_INDEX>
2.01

>  <bpKa>
7.77

>  <TPSAScore>
1.0

>  <MWScore>
1.0

>  <bpKaScore>
1.0

>  <logPScore>
1.0

>  <MPO_area>
80.46

>  <TPSA>
77.82

>  <logP>
2.75

$$$$

  Mrv1722703221715202D          

 29 32  0  0  0  0            999 V2000
    0.0000    0.0000    0.0000 N   0  3  0  0  0  0  0  0  0  0  0  0
    0.8127   -0.0581    0.0000 C   0  0  0  0  0  0  0  0  0  0  0  0
   -0.4708   -0.6708    0.0000 C   0  0  0  0  0  0  0  0  0  0  0  0
   -0.3612    0.7482    0.0000 C   0  0  0  0  0  0  0  0  0  0  0  0
    1.1610   -0.7934    0.0000 C   0  0  0  0  0  0  0  0  0  0  0  0
    1.2707    0.6256    0.0000 C   0  0  0  0  0  0  0  0  0  0  0  0
   -0.1225   -1.4061    0.0000 C   0  0  0  0  0  0  0  0  0  0  0  0
   -1.2965   -0.5999    0.0000 C   0  0  0  0  0  0  0  0  0  0  0  0
    1.9738   -0.8514    0.0000 C   0  0  0  0  0  0  0  0  0  0  0  0
    0.6902   -1.4642    0.0000 C   0  0  0  0  0  0  0  0  0  0  0  0
    2.0834    0.5676    0.0000 C   0  0  0  0  0  0  0  0  0  0  0  0
   -1.7673   -1.2707    0.0000 C   0  0  0  0  0  0  0  0  0  0  0  0
    2.4317   -0.1677    0.0000 C   0  0  0  0  0  0  0  0  0  0  0  0
   -2.5930   -1.1998    0.0000 C   0  0  0  0  0  0  0  0  0  0  0  0
    3.2444   -0.2257    0.0000 N   0  0  0  0  0  0  0  0  0  0  0  0
   -3.0316   -0.4902    0.0000 C   0  0  0  0  0  0  0  0  0  0  0  0
   -3.1348   -1.8189    0.0000 C   0  0  0  0  0  0  0  0  0  0  0  0
    3.5927   -0.9611    0.0000 C   0  0  0  0  0  0  0  0  0  0  0  0
    3.7024    0.4580    0.0000 C   0  0  0  0  0  0  0  0  0  0  0  0
   -3.8378   -0.6773    0.0000 N   0  0  0  0  0  0  0  0  0  0  0  0
   -2.7220    0.2774    0.0000 C   0  0  0  0  0  0  0  0  0  0  0  0
   -3.9023   -1.4964    0.0000 C   0  0  0  0  0  0  0  0  0  0  0  0
   -4.4700   -0.1355    0.0000 C   0  0  0  0  0  0  0  0  0  0  0  0
   -4.6119   -1.9221    0.0000 C   0  0  0  0  0  0  0  0  0  0  0  0
   -4.3281    0.6773    0.0000 C   0  0  0  0  0  0  0  0  0  0  0  0
   -5.2505   -0.4064    0.0000 C   0  0  0  0  0  0  0  0  0  0  0  0
   -4.9602    1.2191    0.0000 C   0  0  0  0  0  0  0  0  0  0  0  0
   -5.8826    0.1355    0.0000 C   0  0  0  0  0  0  0  0  0  0  0  0
   -5.7406    0.9482    0.0000 C   0  0  0  0  0  0  0  0  0  0  0  0
  1  2  1  0  0  0  0
  1  3  2  0  0  0  0
  1  4  1  0  0  0  0
  2  5  2  0  0  0  0
  2  6  1  0  0  0  0
  3  7  1  0  0  0  0
  3  8  1  0  0  0  0
  5  9  1  0  0  0  0
  5 10  1  0  0  0  0
  6 11  2  0  0  0  0
  8 12  2  0  0  0  0
  9 13  2  0  0  0  0
 12 14  1  0  0  0  0
 13 15  1  0  0  0  0
 14 16  2  0  0  0  0
 14 17  1  0  0  0  0
 15 18  1  0  0  0  0
 15 19  1  0  0  0  0
 16 20  1  0  0  0  0
 16 21  1  0  0  0  0
 17 22  2  0  0  0  0
 20 23  1  0  0  0  0
 22 24  1  0  0  0  0
 23 25  2  0  0  0  0
 23 26  1  0  0  0  0
 25 27  1  0  0  0  0
 26 28  2  0  0  0  0
 27 29  2  0  0  0  0
  7 10  2  0  0  0  0
 11 13  1  0  0  0  0
 20 22  1  0  0  0  0
 28 29  1  0  0  0  0
M  CHG  1   1   1
M  END

>  <name>
Pyrvinium

>  <ROTATABLE_BONDCOUNT>
4

>  <HBDScore>
1.0

>  <dipole>
10.37

>  <logD>
1.41

>  <MPOScore>
4.839071428571429

>  <logDScore>
1.0

>  <MW>
382.530

>  <charge_dist(7.4)>
1.00

>  <CNS>
TRUE

>  <ArRings>
4

>  <HBD>
0

>  <BALABAN_INDEX>
1.20

>  <bpKa>
1.48

>  <TPSAScore>
0.0

>  <MWScore>
0.8390714285714288

>  <bpKaScore>
1.0

>  <logPScore>
1.0

>  <MPO_area>
63.98

>  <TPSA>
12.05

>  <logP>
1.41

$$$$

  Mrv1722703221715202D          

 27 30  0  0  0  0            999 V2000
    0.0000    0.0000    0.0000 S   0  0  0  0  0  0  0  0  0  0  0  0
    0.1940   -0.7890    0.0000 C   0  0  0  0  0  0  0  0  0  0  0  0
   -0.7501    0.3492    0.0000 C   0  0  0  0  0  0  0  0  0  0  0  0
   -0.3104   -1.4357    0.0000 C   0  0  0  0  0  0  0  0  0  0  0  0
    1.0024   -0.8924    0.0000 C   0  0  0  0  0  0  0  0  0  0  0  0
   -1.4874   -0.0129    0.0000 C   0  0  0  0  0  0  0  0  0  0  0  0
   -0.7114    1.1770    0.0000 C   0  0  0  0  0  0  0  0  0  0  0  0
   -1.1382   -1.4422    0.0000 N   0  0  0  0  0  0  0  0  0  0  0  0
    0.0000   -2.1858    0.0000 C   0  0  0  0  0  0  0  0  0  0  0  0
    1.3128   -1.6426    0.0000 C   0  0  0  0  0  0  0  0  0  0  0  0
   -1.6620   -0.8084    0.0000 C   0  0  0  0  0  0  0  0  0  0  0  0
   -2.1794    0.4462    0.0000 C   0  0  0  0  0  0  0  0  0  0  0  0
   -1.4033    1.6361    0.0000 C   0  0  0  0  0  0  0  0  0  0  0  0
    0.8084   -2.2893    0.0000 C   0  0  0  0  0  0  0  0  0  0  0  0
   -2.4639   -1.0024    0.0000 N   0  0  0  0  0  0  0  0  0  0  0  0
   -2.1406    1.2740    0.0000 C   0  0  0  0  0  0  0  0  0  0  0  0
   -3.0395   -0.4074    0.0000 C   0  0  0  0  0  0  0  0  0  0  0  0
   -2.6967   -1.7849    0.0000 C   0  0  0  0  0  0  0  0  0  0  0  0
   -3.8414   -0.6014    0.0000 C   0  0  0  0  0  0  0  0  0  0  0  0
   -3.4986   -1.9789    0.0000 C   0  0  0  0  0  0  0  0  0  0  0  0
   -4.0742   -1.3839    0.0000 N   0  0  0  0  0  0  0  0  0  0  0  0
   -4.8761   -1.5780    0.0000 C   0  0  0  0  0  0  0  0  0  0  0  0
   -5.4517   -0.9830    0.0000 C   0  0  0  0  0  0  0  0  0  0  0  0
   -6.2535   -1.1770    0.0000 O   0  0  0  0  0  0  0  0  0  0  0  0
   -6.8291   -0.5820    0.0000 C   0  0  0  0  0  0  0  0  0  0  0  0
   -7.6310   -0.7760    0.0000 C   0  0  0  0  0  0  0  0  0  0  0  0
   -8.2066   -0.1811    0.0000 O   0  0  0  0  0  0  0  0  0  0  0  0
  1  2  1  0  0  0  0
  1  3  1  0  0  0  0
  2  4  2  0  0  0  0
  2  5  1  0  0  0  0
  3  6  2  0  0  0  0
  3  7  1  0  0  0  0
  4  8  1  0  0  0  0
  4  9  1  0  0  0  0
  5 10  2  0  0  0  0
  6 11  1  0  0  0  0
  6 12  1  0  0  0  0
  7 13  2  0  0  0  0
  9 14  2  0  0  0  0
 11 15  1  0  0  0  0
 12 16  2  0  0  0  0
 15 17  1  0  0  0  0
 15 18  1  0  0  0  0
 17 19  1  0  0  0  0
 18 20  1  0  0  0  0
 19 21  1  0  0  0  0
 21 22  1  0  0  0  0
 22 23  1  0  0  0  0
 23 24  1  0  0  0  0
 24 25  1  0  0  0  0
 25 26  1  0  0  0  0
 26 27  1  0  0  0  0
  8 11  2  0  0  0  0
 10 14  1  0  0  0  0
 13 16  1  0  0  0  0
 20 21  1  0  0  0  0
M  END

>  <name>
Quetiapine

>  <ROTATABLE_BONDCOUNT>
5

>  <HBDScore>
0.8333333333333334

>  <dipole>
2.89

>  <logD>
2.64

>  <MPOScore>
5.345404761904762

>  <logDScore>
0.6799999999999999

>  <MW>
383.51

>  <charge_dist(7.4)>
0.32

>  <CNS>
TRUE

>  <ArRings>
2

>  <HBD>
1

>  <BALABAN_INDEX>
1.35

>  <bpKa>
7.06

>  <TPSAScore>
1.0

>  <MWScore>
0.8320714285714286

>  <bpKaScore>
1.0

>  <logPScore>
1.0

>  <MPO_area>
79.54

>  <TPSA>
48.30

>  <logP>
2.81

$$$$

  Mrv1722703221715202D          

 19 21  0  0  0  0            999 V2000
    0.0000    0.0000    0.0000 O   0  0  0  0  0  0  0  0  0  0  0  0
    0.1634   -0.8040    0.0000 C   0  0  0  0  0  0  0  0  0  0  0  0
    0.9478   -1.0589    0.0000 N   0  0  0  0  0  0  0  0  0  0  0  0
   -0.4641   -1.3531    0.0000 C   0  0  0  0  0  0  0  0  0  0  0  0
    1.5622   -0.4968    0.0000 C   0  0  0  0  0  0  0  0  0  0  0  0
   -1.2616   -1.0851    0.0000 C   0  0  0  0  0  0  0  0  0  0  0  0
    2.3466   -0.7517    0.0000 C   0  0  0  0  0  0  0  0  0  0  0  0
    2.9611   -0.1896    0.0000 C   0  0  2  0  0  0  0  0  0  0  0  0
    3.7651   -0.3595    0.0000 C   0  0  0  0  0  0  0  0  0  0  0  0
    2.8695    0.6406    0.0000 C   0  0  0  0  0  0  0  0  0  0  0  0
    4.1703   -1.0720    0.0000 C   0  0  0  0  0  0  0  0  0  0  0  0
    4.1768    0.3661    0.0000 C   0  0  0  0  0  0  0  0  0  0  0  0
    3.6213    0.9805    0.0000 C   0  0  0  0  0  0  0  0  0  0  0  0
    4.9940   -1.0655    0.0000 C   0  0  0  0  0  0  0  0  0  0  0  0
    3.9023   -1.8564    0.0000 C   0  0  0  0  0  0  0  0  0  0  0  0
    5.0005    0.3726    0.0000 C   0  0  0  0  0  0  0  0  0  0  0  0
    5.2423   -1.8499    0.0000 O   0  0  0  0  0  0  0  0  0  0  0  0
    5.4057   -0.3399    0.0000 C   0  0  0  0  0  0  0  0  0  0  0  0
    4.5625   -2.3401    0.0000 C   0  0  0  0  0  0  0  0  0  0  0  0
  1  2  2  0  0  0  0
  2  3  1  0  0  0  0
  2  4  1  0  0  0  0
  3  5  1  0  0  0  0
  4  6  1  0  0  0  0
  5  7  1  0  0  0  0
  8  7  1  1  0  0  0
  8  9  1  0  0  0  0
  8 10  1  0  0  0  0
  9 11  2  0  0  0  0
  9 12  1  0  0  0  0
 10 13  1  0  0  0  0
 11 14  1  0  0  0  0
 11 15  1  0  0  0  0
 12 16  2  0  0  0  0
 14 17  1  0  0  0  0
 14 18  2  0  0  0  0
 15 19  1  0  0  0  0
 12 13  1  0  0  0  0
 16 18  1  0  0  0  0
 17 19  1  0  0  0  0
M  END

>  <name>
Ramelteon

>  <ROTATABLE_BONDCOUNT>
4

>  <HBDScore>
0.8333333333333334

>  <dipole>
5.29

>  <logD>
2.57

>  <MPOScore>
5.464833333333333

>  <logDScore>
0.7150000000000001

>  <MW>
259.349

>  <charge_dist(7.4)>
-0.00

>  <CNS>
TRUE

>  <ArRings>
1

>  <HBD>
1

>  <BALABAN_INDEX>
1.47

>  <bpKa>
-1.36

>  <TPSAScore>
0.9165

>  <MWScore>
1.0

>  <bpKaScore>
1.0

>  <logPScore>
1.0

>  <MPO_area>
83.18

>  <TPSA>
38.33

>  <logP>
2.57

$$$$

  Mrv1722703221715202D          

 13 14  0  0  0  0            999 V2000
    0.0000    0.0000    0.0000 N   0  0  0  0  0  0  0  0  0  0  0  0
    0.7184    0.4077    0.0000 C   0  0  2  0  0  0  0  0  0  0  0  0
   -0.7184    0.4336    0.0000 C   0  0  0  0  0  0  0  0  0  0  0  0
    1.4627    0.0647    0.0000 C   0  0  0  0  0  0  0  0  0  0  0  0
    0.8155    1.2361    0.0000 C   0  0  0  0  0  0  0  0  0  0  0  0
   -1.4497    0.0388    0.0000 C   0  0  0  0  0  0  0  0  0  0  0  0
    2.0193    0.6796    0.0000 C   0  0  0  0  0  0  0  0  0  0  0  0
    1.6956   -0.7184    0.0000 C   0  0  0  0  0  0  0  0  0  0  0  0
    1.6244    1.3980    0.0000 C   0  0  0  0  0  0  0  0  0  0  0  0
   -2.1810   -0.3559    0.0000 C   0  0  0  0  0  0  0  0  0  0  0  0
    2.8218    0.4983    0.0000 C   0  0  0  0  0  0  0  0  0  0  0  0
    2.4982   -0.8996    0.0000 C   0  0  0  0  0  0  0  0  0  0  0  0
    3.0548   -0.2847    0.0000 C   0  0  0  0  0  0  0  0  0  0  0  0
  2  1  1  1  0  0  0
  1  3  1  0  0  0  0
  2  4  1  0  0  0  0
  2  5  1  0  0  0  0
  3  6  1  0  0  0  0
  4  7  2  0  0  0  0
  4  8  1  0  0  0  0
  5  9  1  0  0  0  0
  6 10  3  0  0  0  0
  7 11  1  0  0  0  0
  8 12  2  0  0  0  0
 11 13  2  0  0  0  0
  7  9  1  0  0  0  0
 12 13  1  0  0  0  0
M  END

>  <name>
Rasagiline

>  <ROTATABLE_BONDCOUNT>
2

>  <HBDScore>
0.8333333333333334

>  <dipole>
1.56

>  <logD>
1.27

>  <MPOScore>
4.633333333333333

>  <logDScore>
1.0

>  <MW>
171.243

>  <charge_dist(7.4)>
0.91

>  <CNS>
TRUE

>  <ArRings>
1

>  <HBD>
1

>  <BALABAN_INDEX>
1.57

>  <bpKa>
8.4

>  <TPSAScore>
0.0

>  <MWScore>
1.0

>  <bpKaScore>
0.7999999999999998

>  <logPScore>
1.0

>  <MPO_area>
58.33

>  <TPSA>
12.03

>  <logP>
2.30

$$$$

  Mrv1722703221715202D          

 23 25  0  0  0  0            999 V2000
    0.0000    0.0000    0.0000 O   0  0  0  0  0  0  0  0  0  0  0  0
   -0.7870   -0.2475    0.0000 C   0  0  2  0  0  0  0  0  0  0  0  0
    0.1650    0.8124    0.0000 C   0  0  0  0  0  0  0  0  0  0  0  0
   -0.9647   -1.0472    0.0000 C   0  0  1  0  0  0  0  0  0  0  0  0
   -1.4090    0.3110    0.0000 C   0  0  0  0  0  0  0  0  0  0  0  0
   -0.4570    1.3709    0.0000 C   0  0  0  0  0  0  0  0  0  0  0  0
   -0.3554   -1.5931    0.0000 O   0  0  0  0  0  0  0  0  0  0  0  0
   -1.7518   -1.2947    0.0000 C   0  0  0  0  0  0  0  0  0  0  0  0
   -1.2440    1.1234    0.0000 N   0  0  0  0  0  0  0  0  0  0  0  0
    0.4189   -1.3328    0.0000 C   0  0  0  0  0  0  0  0  0  0  0  0
   -2.3738   -0.7362    0.0000 C   0  0  0  0  0  0  0  0  0  0  0  0
   -1.9294   -2.0945    0.0000 C   0  0  0  0  0  0  0  0  0  0  0  0
    1.0282   -1.8787    0.0000 C   0  0  0  0  0  0  0  0  0  0  0  0
    0.5839   -0.5204    0.0000 C   0  0  0  0  0  0  0  0  0  0  0  0
   -3.1608   -0.9838    0.0000 C   0  0  0  0  0  0  0  0  0  0  0  0
   -2.7164   -2.3420    0.0000 C   0  0  0  0  0  0  0  0  0  0  0  0
    0.8505   -2.6784    0.0000 O   0  0  0  0  0  0  0  0  0  0  0  0
    1.8025   -1.6185    0.0000 C   0  0  0  0  0  0  0  0  0  0  0  0
    1.3582   -0.2602    0.0000 C   0  0  0  0  0  0  0  0  0  0  0  0
   -3.3385   -1.7835    0.0000 C   0  0  0  0  0  0  0  0  0  0  0  0
    0.0635   -2.9259    0.0000 C   0  0  0  0  0  0  0  0  0  0  0  0
    1.9675   -0.8061    0.0000 C   0  0  0  0  0  0  0  0  0  0  0  0
   -0.1143   -3.7256    0.0000 C   0  0  0  0  0  0  0  0  0  0  0  0
  2  1  1  6  0  0  0
  1  3  1  0  0  0  0
  2  4  1  0  0  0  0
  2  5  1  0  0  0  0
  3  6  1  0  0  0  0
  4  7  1  1  0  0  0
  4  8  1  0  0  0  0
  5  9  1  0  0  0  0
  7 10  1  0  0  0  0
  8 11  2  0  0  0  0
  8 12  1  0  0  0  0
 10 13  2  0  0  0  0
 10 14  1  0  0  0  0
 11 15  1  0  0  0  0
 12 16  2  0  0  0  0
 13 17  1  0  0  0  0
 13 18  1  0  0  0  0
 14 19  2  0  0  0  0
 15 20  2  0  0  0  0
 17 21  1  0  0  0  0
 18 22  2  0  0  0  0
 21 23  1  0  0  0  0
  6  9  1  0  0  0  0
 16 20  1  0  0  0  0
 19 22  1  0  0  0  0
M  END

>  <name>
Reboxetine

>  <ROTATABLE_BONDCOUNT>
6

>  <HBDScore>
0.8333333333333334

>  <dipole>
2.77

>  <logD>
2.65

>  <MPOScore>
5.354333333333333

>  <logDScore>
0.675

>  <MW>
313.397

>  <charge_dist(7.4)>
0.76

>  <CNS>
TRUE

>  <ArRings>
2

>  <HBD>
1

>  <BALABAN_INDEX>
1.59

>  <bpKa>
7.91

>  <TPSAScore>
0.986

>  <MWScore>
1.0

>  <bpKaScore>
1.0

>  <logPScore>
0.8600000000000001

>  <MPO_area>
79.8

>  <TPSA>
39.72

>  <logP>
3.28

$$$$

  Mrv1722703221715202D          

 27 28  0  0  0  0            999 V2000
    0.0000    0.0000    0.0000 O   0  0  0  0  0  0  0  0  0  0  0  0
   -0.4439   -0.0386    0.0000 C   0  0  0  0  0  0  0  0  0  0  0  0
   -0.8493    0.6949    0.0000 O   0  0  0  0  0  0  0  0  0  0  0  0
   -0.8815   -0.7399    0.0000 C   0  0  0  0  0  0  0  0  0  0  0  0
   -0.4246    1.4090    0.0000 C   0  0  0  0  0  0  0  0  0  0  0  0
   -0.1158   -1.0358    0.0000 N   0  0  0  0  0  0  0  0  0  0  0  0
   -1.0487   -1.5442    0.0000 C   0  0  0  0  0  0  0  0  0  0  0  0
   -1.5055   -0.1866    0.0000 C   0  0  0  0  0  0  0  0  0  0  0  0
    0.0000   -1.8465    0.0000 C   0  0  0  0  0  0  0  0  0  0  0  0
    0.5211   -0.5147    0.0000 C   0  0  0  0  0  0  0  0  0  0  0  0
   -1.8401   -1.8015    0.0000 C   0  0  0  0  0  0  0  0  0  0  0  0
   -2.2969   -0.4439    0.0000 C   0  0  0  0  0  0  0  0  0  0  0  0
   -0.6499   -2.3548    0.0000 C   0  0  0  0  0  0  0  0  0  0  0  0
    0.7657   -2.1425    0.0000 C   0  0  0  0  0  0  0  0  0  0  0  0
    0.5019   -0.0708    0.0000 O   0  0  0  0  0  0  0  0  0  0  0  0
    1.2868   -0.8107    0.0000 C   0  0  0  0  0  0  0  0  0  0  0  0
   -2.4642   -1.2482    0.0000 N   0  0  0  0  0  0  0  0  0  0  0  0
   -0.5340   -3.1655    0.0000 C   0  0  0  0  0  0  0  0  0  0  0  0
    0.8815   -2.9532    0.0000 C   0  0  0  0  0  0  0  0  0  0  0  0
    1.9238   -0.2895    0.0000 C   0  0  0  0  0  0  0  0  0  0  0  0
   -3.2555   -1.5055    0.0000 C   0  0  0  0  0  0  0  0  0  0  0  0
    0.2316   -3.4615    0.0000 C   0  0  0  0  0  0  0  0  0  0  0  0
   -3.8796   -0.9522    0.0000 C   0  0  0  0  0  0  0  0  0  0  0  0
   -4.6710   -1.2096    0.0000 C   0  0  0  0  0  0  0  0  0  0  0  0
   -4.8383   -2.0138    0.0000 O   0  0  0  0  0  0  0  0  0  0  0  0
   -5.2951   -0.6562    0.0000 O   0  0  0  0  0  0  0  0  0  0  0  0
   -6.0865   -0.9136    0.0000 C   0  0  0  0  0  0  0  0  0  0  0  0
  1  2  2  0  0  0  0
  2  3  1  0  0  0  0
  2  4  1  0  0  0  0
  3  5  1  0  0  0  0
  4  6  1  0  0  0  0
  4  7  1  0  0  0  0
  4  8  1  0  0  0  0
  6  9  1  0  0  0  0
  6 10  1  0  0  0  0
  7 11  1  0  0  0  0
  8 12  1  0  0  0  0
  9 13  2  0  0  0  0
  9 14  1  0  0  0  0
 10 15  2  0  0  0  0
 10 16  1  0  0  0  0
 11 17  1  0  0  0  0
 13 18  1  0  0  0  0
 14 19  2  0  0  0  0
 16 20  1  0  0  0  0
 17 21  1  0  0  0  0
 18 22  2  0  0  0  0
 21 23  1  0  0  0  0
 23 24  1  0  0  0  0
 24 25  2  0  0  0  0
 24 26  1  0  0  0  0
 26 27  1  0  0  0  0
 12 17  1  0  0  0  0
 19 22  1  0  0  0  0
M  END

>  <name>
Remifentanil

>  <ROTATABLE_BONDCOUNT>
9

>  <HBDScore>
1.0

>  <dipole>
1.96

>  <logD>
1.16

>  <MPOScore>
5.882478571428572

>  <logDScore>
1.0

>  <MW>
376.453

>  <charge_dist(7.4)>
0.56

>  <CNS>
TRUE

>  <ArRings>
1

>  <HBD>
0

>  <BALABAN_INDEX>
2.06

>  <bpKa>
7.51

>  <TPSAScore>
1.0

>  <MWScore>
0.8824785714285717

>  <bpKaScore>
1.0

>  <logPScore>
1.0

>  <MPO_area>
96.08

>  <TPSA>
76.15

>  <logP>
1.52

$$$$

  Mrv1722703221715202D          

 15 16  0  0  0  0            999 V2000
    0.0000    0.0000    0.0000 S   0  0  0  0  0  0  0  0  0  0  0  0
    0.5451    0.6156    0.0000 C   0  0  0  0  0  0  0  0  0  0  0  0
   -0.7567    0.3399    0.0000 C   0  0  0  0  0  0  0  0  0  0  0  0
    0.1282    1.3338    0.0000 N   0  0  0  0  0  0  0  0  0  0  0  0
    1.3530    0.5322    0.0000 N   0  0  0  0  0  0  0  0  0  0  0  0
   -0.6733    1.1607    0.0000 C   0  0  0  0  0  0  0  0  0  0  0  0
   -1.5133    0.0128    0.0000 C   0  0  0  0  0  0  0  0  0  0  0  0
   -1.3402    1.6480    0.0000 C   0  0  0  0  0  0  0  0  0  0  0  0
   -2.1802    0.5002    0.0000 C   0  0  0  0  0  0  0  0  0  0  0  0
   -2.0969    1.3210    0.0000 C   0  0  0  0  0  0  0  0  0  0  0  0
   -2.9369    0.1731    0.0000 O   0  0  0  0  0  0  0  0  0  0  0  0
   -3.6038    0.6605    0.0000 C   0  0  0  0  0  0  0  0  0  0  0  0
   -4.2707    1.1478    0.0000 F   0  0  0  0  0  0  0  0  0  0  0  0
   -4.0912    0.0064    0.0000 F   0  0  0  0  0  0  0  0  0  0  0  0
   -3.1293    1.3274    0.0000 F   0  0  0  0  0  0  0  0  0  0  0  0
  1  2  1  0  0  0  0
  1  3  1  0  0  0  0
  2  4  2  0  0  0  0
  2  5  1  0  0  0  0
  3  6  2  0  0  0  0
  3  7  1  0  0  0  0
  6  8  1  0  0  0  0
  7  9  2  0  0  0  0
  8 10  2  0  0  0  0
  9 11  1  0  0  0  0
 11 12  1  0  0  0  0
 12 13  1  0  0  0  0
 12 14  1  0  0  0  0
 12 15  1  0  0  0  0
  4  6  1  0  0  0  0
  9 10  1  0  0  0  0
M  END

>  <name>
Riluzole

>  <ROTATABLE_BONDCOUNT>
2

>  <HBDScore>
0.8333333333333334

>  <dipole>
4.10

>  <logD>
3.40

>  <MPOScore>
4.933333333333334

>  <logDScore>
0.30000000000000004

>  <MW>
234.20

>  <charge_dist(7.4)>
0.00

>  <CNS>
TRUE

>  <ArRings>
2

>  <HBD>
1

>  <BALABAN_INDEX>
1.75

>  <bpKa>
4.57

>  <TPSAScore>
1.0

>  <MWScore>
1.0

>  <bpKaScore>
1.0

>  <logPScore>
0.8

>  <MPO_area>
67.33

>  <TPSA>
48.14

>  <logP>
3.40

$$$$

  Mrv1722703221715202D          

 13 15  0  0  0  0            999 V2000
    0.0000    0.0000    0.0000 N   0  0  0  0  0  0  0  0  0  0  0  0
    0.3644    0.7509    0.0000 C   0  0  2  0  0  0  0  0  0  0  0  0
    1.1817    0.8061    0.0000 C   0  0  0  0  0  0  0  0  0  0  0  0
   -0.1104    1.4577    0.0000 C   0  0  0  0  0  0  0  0  0  0  0  0
    1.5461    1.5571    0.0000 C   0  0  0  0  0  0  0  0  0  0  0  0
    1.6345    0.1215    0.0000 C   0  0  0  0  0  0  0  0  0  0  0  0
    0.7951    0.0773    0.0000 C   0  0  0  0  0  0  0  0  0  0  0  0
    2.3633    1.6124    0.0000 C   0  0  0  0  0  0  0  0  0  0  0  0
    2.4517    0.1767    0.0000 C   0  0  0  0  0  0  0  0  0  0  0  0
    1.2479   -0.6074    0.0000 C   0  0  0  0  0  0  0  0  0  0  0  0
    2.8161    0.9277    0.0000 C   0  0  0  0  0  0  0  0  0  0  0  0
    1.1817    0.2208    0.0000 C   0  0  0  0  0  0  0  0  0  0  0  0
    2.0651   -0.5522    0.0000 C   0  0  0  0  0  0  0  0  0  0  0  0
  2  1  1  1  0  0  0
  2  3  1  0  0  0  0
  2  4  1  0  0  0  0
  3  5  1  0  0  0  0
  3  6  1  0  0  0  0
  3  7  1  0  0  0  0
  5  8  1  0  0  0  0
  6  9  1  0  0  0  0
  7 10  1  0  0  0  0
  8 11  1  0  0  0  0
  8 12  1  0  0  0  0
  9 13  1  0  0  0  0
  9 11  1  0  0  0  0
 10 12  1  0  0  0  0
 10 13  1  0  0  0  0
M  END

>  <name>
Rimantadine

>  <ROTATABLE_BONDCOUNT>
1

>  <HBDScore>
0.8333333333333334

>  <dipole>
0.81

>  <logD>
-0.35

>  <MPOScore>
4.134333333333333

>  <logDScore>
1.0

>  <MW>
179.307

>  <charge_dist(7.4)>
1.00

>  <CNS>
TRUE

>  <ArRings>
0

>  <HBD>
1

>  <BALABAN_INDEX>
1.53

>  <bpKa>
10.14

>  <TPSAScore>
0.301

>  <MWScore>
1.0

>  <bpKaScore>
0.0

>  <logPScore>
1.0

>  <MPO_area>
51.4

>  <TPSA>
26.02

>  <logP>
2.22

$$$$

  Mrv1722703221715202D          

 30 33  0  0  0  0            999 V2000
    0.0000    0.0000    0.0000 Cl  0  0  0  0  0  0  0  0  0  0  0  0
   -0.7966    0.2396    0.0000 C   0  0  0  0  0  0  0  0  0  0  0  0
   -0.9909    1.0492    0.0000 C   0  0  0  0  0  0  0  0  0  0  0  0
   -1.3989   -0.3173    0.0000 C   0  0  0  0  0  0  0  0  0  0  0  0
   -0.4015    1.6191    0.0000 N   0  0  0  0  0  0  0  0  0  0  0  0
   -1.7875    1.2888    0.0000 C   0  0  0  0  0  0  0  0  0  0  0  0
   -2.1955   -0.0777    0.0000 C   0  0  0  0  0  0  0  0  0  0  0  0
    0.4015    1.4766    0.0000 N   0  0  0  0  0  0  0  0  0  0  0  0
   -0.5117    2.4416    0.0000 C   0  0  0  0  0  0  0  0  0  0  0  0
   -2.3898    0.7318    0.0000 C   0  0  0  0  0  0  0  0  0  0  0  0
   -2.7978   -0.6347    0.0000 Cl  0  0  0  0  0  0  0  0  0  0  0  0
    0.7901    2.2084    0.0000 C   0  0  0  0  0  0  0  0  0  0  0  0
   -1.2435    2.8431    0.0000 C   0  0  0  0  0  0  0  0  0  0  0  0
    0.2267    2.7978    0.0000 C   0  0  0  0  0  0  0  0  0  0  0  0
    1.5996    2.3185    0.0000 C   0  0  0  0  0  0  0  0  0  0  0  0
   -1.2693    3.6721    0.0000 C   0  0  0  0  0  0  0  0  0  0  0  0
   -1.9494    2.4221    0.0000 C   0  0  0  0  0  0  0  0  0  0  0  0
    0.3691    3.6138    0.0000 C   0  0  0  0  0  0  0  0  0  0  0  0
    1.9105    3.0827    0.0000 O   0  0  0  0  0  0  0  0  0  0  0  0
    2.0918    1.6709    0.0000 N   0  0  0  0  0  0  0  0  0  0  0  0
   -2.0012    4.0736    0.0000 C   0  0  0  0  0  0  0  0  0  0  0  0
   -2.6812    2.8237    0.0000 C   0  0  0  0  0  0  0  0  0  0  0  0
    2.9014    1.7810    0.0000 N   0  0  0  0  0  0  0  0  0  0  0  0
   -2.7071    3.6526    0.0000 C   0  0  0  0  0  0  0  0  0  0  0  0
    3.3936    1.1334    0.0000 C   0  0  0  0  0  0  0  0  0  0  0  0
    3.2122    2.5452    0.0000 C   0  0  0  0  0  0  0  0  0  0  0  0
   -3.4389    4.0542    0.0000 Cl  0  0  0  0  0  0  0  0  0  0  0  0
    4.2031    1.2435    0.0000 C   0  0  0  0  0  0  0  0  0  0  0  0
    4.0218    2.6553    0.0000 C   0  0  0  0  0  0  0  0  0  0  0  0
    4.5140    2.0076    0.0000 C   0  0  0  0  0  0  0  0  0  0  0  0
  1  2  1  0  0  0  0
  2  3  2  0  0  0  0
  2  4  1  0  0  0  0
  3  5  1  0  0  0  0
  3  6  1  0  0  0  0
  4  7  2  0  0  0  0
  5  8  1  0  0  0  0
  5  9  1  0  0  0  0
  6 10  2  0  0  0  0
  7 11  1  0  0  0  0
  8 12  2  0  0  0  0
  9 13  1  0  0  0  0
  9 14  2  0  0  0  0
 12 15  1  0  0  0  0
 13 16  2  0  0  0  0
 13 17  1  0  0  0  0
 14 18  1  0  0  0  0
 15 19  2  0  0  0  0
 15 20  1  0  0  0  0
 16 21  1  0  0  0  0
 17 22  2  0  0  0  0
 20 23  1  0  0  0  0
 21 24  2  0  0  0  0
 23 25  1  0  0  0  0
 23 26  1  0  0  0  0
 24 27  1  0  0  0  0
 25 28  1  0  0  0  0
 26 29  1  0  0  0  0
 28 30  1  0  0  0  0
  7 10  1  0  0  0  0
 12 14  1  0  0  0  0
 22 24  1  0  0  0  0
 29 30  1  0  0  0  0
M  END

>  <name>
Rimonabant

>  <ROTATABLE_BONDCOUNT>
4

>  <HBDScore>
0.8333333333333334

>  <dipole>
5.35

>  <logD>
5.91

>  <MPOScore>
3.0919761904761907

>  <logDScore>
0.0

>  <MW>
463.79

>  <charge_dist(7.4)>
-0.00

>  <CNS>
TRUE

>  <ArRings>
3

>  <HBD>
1

>  <BALABAN_INDEX>
1.35

>  <bpKa>
1.68

>  <TPSAScore>
1.0

>  <MWScore>
0.25864285714285706

>  <bpKaScore>
1.0

>  <logPScore>
0.0

>  <MPO_area>
34.15

>  <TPSA>
50.16

>  <logP>
5.91

$$$$

  Mrv1722703221715202D          

 30 34  0  0  0  0            999 V2000
    0.0000    0.0000    0.0000 F   0  0  0  0  0  0  0  0  0  0  0  0
    0.6989   -0.4246    0.0000 C   0  0  0  0  0  0  0  0  0  0  0  0
    0.6728   -1.2476    0.0000 C   0  0  0  0  0  0  0  0  0  0  0  0
    1.4240   -0.0196    0.0000 C   0  0  0  0  0  0  0  0  0  0  0  0
    1.3717   -1.6722    0.0000 C   0  0  0  0  0  0  0  0  0  0  0  0
    2.1229   -0.4442    0.0000 C   0  0  0  0  0  0  0  0  0  0  0  0
    1.5154   -2.4821    0.0000 O   0  0  0  0  0  0  0  0  0  0  0  0
    2.0967   -1.2672    0.0000 C   0  0  0  0  0  0  0  0  0  0  0  0
    2.3319   -2.5866    0.0000 N   0  0  0  0  0  0  0  0  0  0  0  0
    2.6911   -1.8355    0.0000 C   0  0  0  0  0  0  0  0  0  0  0  0
    3.5011   -1.6787    0.0000 C   0  0  0  0  0  0  0  0  0  0  0  0
    3.7689   -0.8883    0.0000 C   0  0  0  0  0  0  0  0  0  0  0  0
    4.0302   -2.3057    0.0000 C   0  0  0  0  0  0  0  0  0  0  0  0
    4.5789   -0.7316    0.0000 C   0  0  0  0  0  0  0  0  0  0  0  0
    4.8402   -2.1490    0.0000 C   0  0  0  0  0  0  0  0  0  0  0  0
    5.1080   -1.3586    0.0000 N   0  0  0  0  0  0  0  0  0  0  0  0
    5.9179   -1.2018    0.0000 C   0  0  0  0  0  0  0  0  0  0  0  0
    6.4470   -1.8290    0.0000 C   0  0  0  0  0  0  0  0  0  0  0  0
    7.2570   -1.6722    0.0000 C   0  0  0  0  0  0  0  0  0  0  0  0
    7.5248   -0.8818    0.0000 C   0  0  0  0  0  0  0  0  0  0  0  0
    7.7861   -2.2992    0.0000 C   0  0  0  0  0  0  0  0  0  0  0  0
    6.9826   -0.2417    0.0000 O   0  0  0  0  0  0  0  0  0  0  0  0
    8.3347   -0.7251    0.0000 N   0  0  0  0  0  0  0  0  0  0  0  0
    8.5960   -2.1425    0.0000 N   0  0  0  0  0  0  0  0  0  0  0  0
    7.5052   -3.0765    0.0000 C   0  0  0  0  0  0  0  0  0  0  0  0
    8.8638   -1.3521    0.0000 C   0  0  0  0  0  0  0  0  0  0  0  0
    8.6025    0.0653    0.0000 C   0  0  0  0  0  0  0  0  0  0  0  0
    9.6738   -1.1954    0.0000 C   0  0  0  0  0  0  0  0  0  0  0  0
    9.4125    0.2221    0.0000 C   0  0  0  0  0  0  0  0  0  0  0  0
    9.9416   -0.4050    0.0000 C   0  0  0  0  0  0  0  0  0  0  0  0
  1  2  1  0  0  0  0
  2  3  2  0  0  0  0
  2  4  1  0  0  0  0
  3  5  1  0  0  0  0
  4  6  2  0  0  0  0
  5  7  1  0  0  0  0
  5  8  2  0  0  0  0
  7  9  1  0  0  0  0
  8 10  1  0  0  0  0
 10 11  1  0  0  0  0
 11 12  1  0  0  0  0
 11 13  1  0  0  0  0
 12 14  1  0  0  0  0
 13 15  1  0  0  0  0
 14 16  1  0  0  0  0
 16 17  1  0  0  0  0
 17 18  1  0  0  0  0
 18 19  1  0  0  0  0
 19 20  1  0  0  0  0
 19 21  2  0  0  0  0
 20 22  2  0  0  0  0
 20 23  1  0  0  0  0
 21 24  1  0  0  0  0
 21 25  1  0  0  0  0
 23 26  1  0  0  0  0
 23 27  1  0  0  0  0
 26 28  1  0  0  0  0
 27 29  1  0  0  0  0
 28 30  1  0  0  0  0
  6  8  1  0  0  0  0
  9 10  2  0  0  0  0
 15 16  1  0  0  0  0
 24 26  2  0  0  0  0
 29 30  1  0  0  0  0
M  END

>  <name>
Risperidone

>  <ROTATABLE_BONDCOUNT>
4

>  <HBDScore>
1.0

>  <dipole>
7.24

>  <logD>
1.25

>  <MPOScore>
5.259335714285714

>  <logDScore>
1.0

>  <MW>
410.493

>  <charge_dist(7.4)>
0.96

>  <CNS>
TRUE

>  <ArRings>
3

>  <HBD>
0

>  <BALABAN_INDEX>
0.96

>  <bpKa>
8.76

>  <TPSAScore>
1.0

>  <MWScore>
0.6393357142857143

>  <bpKaScore>
0.6200000000000001

>  <logPScore>
1.0

>  <MPO_area>
77.6

>  <TPSA>
61.94

>  <logP>
2.63

$$$$

  Mrv1722703221715202D          

 18 18  0  0  0  0            999 V2000
    0.0000    0.0000    0.0000 O   0  0  0  0  0  0  0  0  0  0  0  0
    0.5508    0.6142    0.0000 C   0  0  0  0  0  0  0  0  0  0  0  0
    0.2976    1.4056    0.0000 O   0  0  0  0  0  0  0  0  0  0  0  0
    1.3486    0.4369    0.0000 N   0  0  0  0  0  0  0  0  0  0  0  0
   -0.5129    1.5955    0.0000 C   0  0  0  0  0  0  0  0  0  0  0  0
    1.8995    1.0510    0.0000 C   0  0  0  0  0  0  0  0  0  0  0  0
    1.5892   -0.3419    0.0000 C   0  0  0  0  0  0  0  0  0  0  0  0
   -1.0764    0.9940    0.0000 C   0  0  0  0  0  0  0  0  0  0  0  0
   -0.7661    2.3870    0.0000 C   0  0  0  0  0  0  0  0  0  0  0  0
    2.6972    0.8738    0.0000 C   0  0  0  0  0  0  0  0  0  0  0  0
   -1.8868    1.1840    0.0000 C   0  0  0  0  0  0  0  0  0  0  0  0
   -1.5766    2.5769    0.0000 C   0  0  0  0  0  0  0  0  0  0  0  0
   -2.1401    1.9754    0.0000 C   0  0  0  0  0  0  0  0  0  0  0  0
   -2.4503    0.5825    0.0000 C   0  0  1  0  0  0  0  0  0  0  0  0
   -2.2097   -0.1963    0.0000 N   0  0  0  0  0  0  0  0  0  0  0  0
   -3.2607    0.7724    0.0000 C   0  0  0  0  0  0  0  0  0  0  0  0
   -2.7732   -0.7978    0.0000 C   0  0  0  0  0  0  0  0  0  0  0  0
   -1.4119   -0.3735    0.0000 C   0  0  0  0  0  0  0  0  0  0  0  0
  1  2  2  0  0  0  0
  2  3  1  0  0  0  0
  2  4  1  0  0  0  0
  3  5  1  0  0  0  0
  4  6  1  0  0  0  0
  4  7  1  0  0  0  0
  5  8  2  0  0  0  0
  5  9  1  0  0  0  0
  6 10  1  0  0  0  0
  8 11  1  0  0  0  0
  9 12  2  0  0  0  0
 11 13  2  0  0  0  0
 11 14  1  0  0  0  0
 14 15  1  1  0  0  0
 14 16  1  0  0  0  0
 15 17  1  0  0  0  0
 15 18  1  0  0  0  0
 12 13  1  0  0  0  0
M  END

>  <name>
Rivastigmine

>  <ROTATABLE_BONDCOUNT>
5

>  <HBDScore>
1.0

>  <dipole>
3.34

>  <logD>
1.00

>  <MPOScore>
5.239

>  <logDScore>
1.0

>  <MW>
250.342

>  <charge_dist(7.4)>
0.96

>  <CNS>
TRUE

>  <ArRings>
1

>  <HBD>
0

>  <BALABAN_INDEX>
2.44

>  <bpKa>
8.8

>  <TPSAScore>
0.6390000000000001

>  <MWScore>
1.0

>  <bpKaScore>
0.5999999999999996

>  <logPScore>
1.0

>  <MPO_area>
77.04

>  <TPSA>
32.78

>  <logP>
2.41

$$$$

  Mrv1722703221715202D          

 20 22  0  0  0  0            999 V2000
    0.0000    0.0000    0.0000 N   0  0  0  0  0  0  0  0  0  0  0  0
   -0.3623    0.7504    0.0000 N   0  0  0  0  0  0  0  0  0  0  0  0
    0.8086    0.1165    0.0000 C   0  0  0  0  0  0  0  0  0  0  0  0
    0.2264    1.3261    0.0000 C   0  0  0  0  0  0  0  0  0  0  0  0
   -1.1774    0.9057    0.0000 C   0  0  0  0  0  0  0  0  0  0  0  0
    0.9509    0.9316    0.0000 N   0  0  0  0  0  0  0  0  0  0  0  0
   -1.7143    0.2846    0.0000 C   0  0  0  0  0  0  0  0  0  0  0  0
   -2.5294    0.4399    0.0000 C   0  0  0  0  0  0  0  0  0  0  0  0
   -1.4426   -0.4852    0.0000 C   0  0  0  0  0  0  0  0  0  0  0  0
   -3.0663   -0.1811    0.0000 C   0  0  0  0  0  0  0  0  0  0  0  0
   -1.9795   -1.1062    0.0000 C   0  0  0  0  0  0  0  0  0  0  0  0
   -2.7946   -0.9509    0.0000 C   0  0  0  0  0  0  0  0  0  0  0  0
   -3.8943   -0.2005    0.0000 C   0  0  0  0  0  0  0  0  0  0  0  0
   -3.4545   -1.4490    0.0000 N   0  0  0  0  0  2  0  0  0  0  0  0
   -4.1337   -0.9833    0.0000 C   0  0  0  0  0  0  0  0  0  0  0  0
   -4.4054    0.4593    0.0000 C   0  0  0  0  0  0  0  0  0  0  0  0
   -5.2270    0.3558    0.0000 C   0  0  0  0  0  0  0  0  0  0  0  0
   -5.7380    1.0156    0.0000 N   0  0  0  0  0  0  0  0  0  0  0  0
   -6.5596    0.9121    0.0000 C   0  0  0  0  0  0  0  0  0  0  0  0
   -5.4340    1.7855    0.0000 C   0  0  0  0  0  0  0  0  0  0  0  0
  1  2  1  0  0  0  0
  1  3  2  0  0  0  0
  2  4  1  0  0  0  0
  2  5  1  0  0  0  0
  3  6  1  0  0  0  0
  5  7  1  0  0  0  0
  7  8  2  0  0  0  0
  7  9  1  0  0  0  0
  8 10  1  0  0  0  0
  9 11  2  0  0  0  0
 10 12  2  0  0  0  0
 10 13  1  0  0  0  0
 12 14  1  0  0  0  0
 13 15  2  0  0  0  0
 13 16  1  0  0  0  0
 16 17  1  0  0  0  0
 17 18  1  0  0  0  0
 18 19  1  0  0  0  0
 18 20  1  0  0  0  0
  4  6  2  0  0  0  0
 11 12  1  0  0  0  0
 14 15  1  0  0  0  0
M  RAD  1  14   2
M  END

>  <name>
Rizatriptan

>  <ROTATABLE_BONDCOUNT>
5

>  <HBDScore>
1.0

>  <logD>
-0.25

>  <MPOScore>
5.425

>  <logDScore>
1.0

>  <MW>
268.344

>  <charge_dist(7.4)>
0.98

>  <CNS>
TRUE

>  <ArRings>
3

>  <HBD>
0

>  <BALABAN_INDEX>
1.36

>  <bpKa>
9.15

>  <TPSAScore>
1.0

>  <MWScore>
1.0

>  <bpKaScore>
0.4249999999999998

>  <logPScore>
1.0

>  <MPO_area>
80.83

>  <TPSA>
46.84

>  <logP>
1.50

$$$$

  Mrv1722703221715202D          

 22 24  0  0  0  0            999 V2000
    0.0000    0.0000    0.0000 S   0  0  0  0  0  0  0  0  0  0  0  0
   -0.2777    0.7813    0.0000 O   0  0  0  0  0  0  0  0  0  0  0  0
    0.2648   -0.7684    0.0000 O   0  0  0  0  0  0  0  0  0  0  0  0
   -0.7813   -0.2648    0.0000 C   0  0  0  0  0  0  0  0  0  0  0  0
    0.7684    0.2777    0.0000 C   0  0  0  0  0  0  0  0  0  0  0  0
   -0.9363   -1.0655    0.0000 C   0  0  0  0  0  0  0  0  0  0  0  0
   -1.4077    0.2777    0.0000 C   0  0  0  0  0  0  0  0  0  0  0  0
   -1.7176   -1.3302    0.0000 C   0  0  0  0  0  0  0  0  0  0  0  0
   -2.1890    0.0129    0.0000 C   0  0  0  0  0  0  0  0  0  0  0  0
   -2.3440   -0.7878    0.0000 C   0  0  0  0  0  0  0  0  0  0  0  0
   -3.1253   -1.0526    0.0000 C   0  0  0  0  0  0  0  0  0  0  0  0
   -3.8098   -0.5812    0.0000 C   0  0  0  0  0  0  0  0  0  0  0  0
   -3.3642   -1.8339    0.0000 C   0  0  0  0  0  0  0  0  0  0  0  0
   -3.8356    0.2454    0.0000 C   0  0  0  0  0  0  0  0  0  0  0  0
   -4.4684   -1.0719    0.0000 C   0  0  0  0  0  0  0  0  0  0  0  0
   -4.1907   -1.8468    0.0000 O   0  0  0  0  0  0  0  0  0  0  0  0
   -3.1447    0.6780    0.0000 C   0  0  0  0  0  0  0  0  0  0  0  0
   -4.5653    0.6457    0.0000 C   0  0  0  0  0  0  0  0  0  0  0  0
   -5.2627   -0.8330    0.0000 O   0  0  0  0  0  0  0  0  0  0  0  0
   -3.1705    1.5046    0.0000 C   0  0  0  0  0  0  0  0  0  0  0  0
   -4.5911    1.4723    0.0000 C   0  0  0  0  0  0  0  0  0  0  0  0
   -3.9002    1.9049    0.0000 C   0  0  0  0  0  0  0  0  0  0  0  0
  1  2  2  0  0  0  0
  1  3  2  0  0  0  0
  1  4  1  0  0  0  0
  1  5  1  0  0  0  0
  4  6  2  0  0  0  0
  4  7  1  0  0  0  0
  6  8  1  0  0  0  0
  7  9  2  0  0  0  0
  8 10  2  0  0  0  0
 10 11  1  0  0  0  0
 11 12  2  0  0  0  0
 11 13  1  0  0  0  0
 12 14  1  0  0  0  0
 12 15  1  0  0  0  0
 13 16  1  0  0  0  0
 14 17  2  0  0  0  0
 14 18  1  0  0  0  0
 15 19  2  0  0  0  0
 17 20  1  0  0  0  0
 18 21  2  0  0  0  0
 20 22  2  0  0  0  0
  9 10  1  0  0  0  0
 15 16  1  0  0  0  0
 21 22  1  0  0  0  0
M  END

>  <name>
Rofecoxib

>  <ROTATABLE_BONDCOUNT>
3

>  <HBDScore>
1.0

>  <dipole>
9.45

>  <logD>
2.56

>  <MPOScore>
5.72

>  <logDScore>
0.72

>  <MW>
314.36

>  <charge_dist(7.4)>
-0.00

>  <CNS>
TRUE

>  <ArRings>
2

>  <HBD>
0

>  <BALABAN_INDEX>
1.61

>  <bpKa>
-6.99

>  <TPSAScore>
1.0

>  <MWScore>
1.0

>  <bpKaScore>
1.0

>  <logPScore>
1.0

>  <MPO_area>
90.67

>  <TPSA>
60.44

>  <logP>
2.56

$$$$

  Mrv1722703221715202D          

 19 20  0  0  0  0            999 V2000
    0.0000    0.0000    0.0000 O   0  0  0  0  0  0  0  0  0  0  0  0
    0.3590   -0.7441    0.0000 C   0  0  0  0  0  0  0  0  0  0  0  0
   -0.0391   -1.4686    0.0000 N   0  0  0  0  0  0  0  0  0  0  0  0
    1.1683   -0.8811    0.0000 C   0  0  0  0  0  0  0  0  0  0  0  0
    0.5287   -2.0625    0.0000 C   0  0  0  0  0  0  0  0  0  0  0  0
    1.2728   -1.6970    0.0000 C   0  0  0  0  0  0  0  0  0  0  0  0
    0.4634   -2.8849    0.0000 C   0  0  0  0  0  0  0  0  0  0  0  0
    1.9515   -2.1539    0.0000 C   0  0  0  0  0  0  0  0  0  0  0  0
    1.1422   -3.3418    0.0000 C   0  0  0  0  0  0  0  0  0  0  0  0
    1.8863   -2.9763    0.0000 C   0  0  0  0  0  0  0  0  0  0  0  0
    2.6956   -1.7818    0.0000 C   0  0  0  0  0  0  0  0  0  0  0  0
    3.3744   -2.2387    0.0000 C   0  0  0  0  0  0  0  0  0  0  0  0
    4.1185   -1.8667    0.0000 N   0  0  0  0  0  0  0  0  0  0  0  0
    4.7973   -2.3236    0.0000 C   0  0  0  0  0  0  0  0  0  0  0  0
    4.1707   -1.0313    0.0000 C   0  0  0  0  0  0  0  0  0  0  0  0
    5.5413   -1.9515    0.0000 C   0  0  0  0  0  0  0  0  0  0  0  0
    4.9148   -0.6592    0.0000 C   0  0  0  0  0  0  0  0  0  0  0  0
    6.2202   -2.4084    0.0000 C   0  0  0  0  0  0  0  0  0  0  0  0
    4.9670    0.1762    0.0000 C   0  0  0  0  0  0  0  0  0  0  0  0
  1  2  2  0  0  0  0
  2  3  1  0  0  0  0
  2  4  1  0  0  0  0
  3  5  1  0  0  0  0
  4  6  1  0  0  0  0
  5  7  2  0  0  0  0
  6  8  2  0  0  0  0
  7  9  1  0  0  0  0
  8 10  1  0  0  0  0
  8 11  1  0  0  0  0
 11 12  1  0  0  0  0
 12 13  1  0  0  0  0
 13 14  1  0  0  0  0
 13 15  1  0  0  0  0
 14 16  1  0  0  0  0
 15 17  1  0  0  0  0
 16 18  1  0  0  0  0
 17 19  1  0  0  0  0
  5  6  1  0  0  0  0
  9 10  2  0  0  0  0
M  END

>  <name>
Ropinirole

>  <ROTATABLE_BONDCOUNT>
7

>  <HBDScore>
0.8333333333333334

>  <dipole>
3.57

>  <logD>
0.36

>  <MPOScore>
4.420333333333334

>  <logDScore>
1.0

>  <MW>
260.381

>  <charge_dist(7.4)>
1.00

>  <CNS>
TRUE

>  <ArRings>
1

>  <HBD>
1

>  <BALABAN_INDEX>
1.62

>  <bpKa>
10.17

>  <TPSAScore>
0.6170000000000002

>  <MWScore>
1.0

>  <bpKaScore>
0.0

>  <logPScore>
0.97

>  <MPO_area>
54.88

>  <TPSA>
32.34

>  <logP>
3.06

$$$$

  Mrv1722703221715202D          

 20 21  0  0  0  0            999 V2000
    0.0000    0.0000    0.0000 O   0  0  0  0  0  0  0  0  0  0  0  0
   -0.0452   -0.8127    0.0000 C   0  0  0  0  0  0  0  0  0  0  0  0
    0.6386   -1.2449    0.0000 N   0  0  0  0  0  0  0  0  0  0  0  0
   -0.7805   -1.1869    0.0000 C   0  0  1  0  0  0  0  0  0  0  0  0
    1.3610   -0.8579    0.0000 C   0  0  0  0  0  0  0  0  0  0  0  0
   -1.4771   -0.7418    0.0000 N   0  0  0  0  0  0  0  0  0  0  0  0
   -0.8256   -1.9996    0.0000 C   0  0  0  0  0  0  0  0  0  0  0  0
    1.3933   -0.0323    0.0000 C   0  0  0  0  0  0  0  0  0  0  0  0
    2.0447   -1.2901    0.0000 C   0  0  0  0  0  0  0  0  0  0  0  0
   -2.2125   -1.1159    0.0000 C   0  0  0  0  0  0  0  0  0  0  0  0
   -1.4449    0.0838    0.0000 C   0  0  0  0  0  0  0  0  0  0  0  0
   -1.5610   -2.3737    0.0000 C   0  0  0  0  0  0  0  0  0  0  0  0
    2.1157    0.3548    0.0000 C   0  0  0  0  0  0  0  0  0  0  0  0
    0.6966    0.4128    0.0000 C   0  0  0  0  0  0  0  0  0  0  0  0
    2.7671   -0.9030    0.0000 C   0  0  0  0  0  0  0  0  0  0  0  0
    1.9996   -2.1028    0.0000 C   0  0  0  0  0  0  0  0  0  0  0  0
   -2.2576   -1.9286    0.0000 C   0  0  0  0  0  0  0  0  0  0  0  0
   -2.1415    0.5289    0.0000 C   0  0  0  0  0  0  0  0  0  0  0  0
    2.7994   -0.0774    0.0000 C   0  0  0  0  0  0  0  0  0  0  0  0
   -2.1093    1.3546    0.0000 C   0  0  0  0  0  0  0  0  0  0  0  0
  1  2  2  0  0  0  0
  2  3  1  0  0  0  0
  4  2  1  6  0  0  0
  3  5  1  0  0  0  0
  4  6  1  0  0  0  0
  4  7  1  0  0  0  0
  5  8  2  0  0  0  0
  5  9  1  0  0  0  0
  6 10  1  0  0  0  0
  6 11  1  0  0  0  0
  7 12  1  0  0  0  0
  8 13  1  0  0  0  0
  8 14  1  0  0  0  0
  9 15  2  0  0  0  0
  9 16  1  0  0  0  0
 10 17  1  0  0  0  0
 11 18  1  0  0  0  0
 13 19  2  0  0  0  0
 18 20  1  0  0  0  0
 12 17  1  0  0  0  0
 15 19  1  0  0  0  0
M  END

>  <name>
Ropivacaine

>  <ROTATABLE_BONDCOUNT>
4

>  <HBDScore>
0.8333333333333334

>  <dipole>
2.79

>  <logD>
3.51

>  <MPOScore>
4.160333333333334

>  <logDScore>
0.2450000000000001

>  <MW>
274.408

>  <charge_dist(7.4)>
0.72

>  <CNS>
TRUE

>  <ArRings>
1

>  <HBD>
1

>  <BALABAN_INDEX>
1.93

>  <bpKa>
7.82

>  <TPSAScore>
0.6170000000000002

>  <MWScore>
1.0

>  <bpKaScore>
1.0

>  <logPScore>
0.46499999999999986

>  <MPO_area>
49.89

>  <TPSA>
32.34

>  <logP>
4.07

$$$$

  Mrv1722703221715202D          

 17 18  0  0  0  0            999 V2000
    0.0000    0.0000    0.0000 F   0  0  0  0  0  0  0  0  0  0  0  0
   -0.2997    0.7714    0.0000 C   0  0  0  0  0  0  0  0  0  0  0  0
   -1.1157    0.9117    0.0000 C   0  0  0  0  0  0  0  0  0  0  0  0
    0.2104    1.4153    0.0000 C   0  0  0  0  0  0  0  0  0  0  0  0
   -1.4153    1.6831    0.0000 C   0  0  0  0  0  0  0  0  0  0  0  0
   -1.6385    0.2805    0.0000 C   0  0  0  0  0  0  0  0  0  0  0  0
   -0.0893    2.1868    0.0000 C   0  0  0  0  0  0  0  0  0  0  0  0
   -2.2314    1.8234    0.0000 F   0  0  0  0  0  0  0  0  0  0  0  0
   -0.9053    2.3271    0.0000 C   0  0  0  0  0  0  0  0  0  0  0  0
   -2.4545    0.4208    0.0000 N   0  0  0  0  0  0  0  0  0  0  0  0
   -3.0411   -0.1466    0.0000 N   0  0  0  0  0  0  0  0  0  0  0  0
   -2.8307    1.1604    0.0000 C   0  0  0  0  0  0  0  0  0  0  0  0
   -3.7743    0.2359    0.0000 N   0  0  0  0  0  0  0  0  0  0  0  0
   -3.6468    1.0392    0.0000 C   0  0  0  0  0  0  0  0  0  0  0  0
   -4.2269    1.6257    0.0000 C   0  0  0  0  0  0  0  0  0  0  0  0
   -5.0239    1.4217    0.0000 O   0  0  0  0  0  0  0  0  0  0  0  0
   -4.0166    2.4227    0.0000 N   0  0  0  0  0  0  0  0  0  0  0  0
  1  2  1  0  0  0  0
  2  3  2  0  0  0  0
  2  4  1  0  0  0  0
  3  5  1  0  0  0  0
  3  6  1  0  0  0  0
  4  7  2  0  0  0  0
  5  8  1  0  0  0  0
  5  9  2  0  0  0  0
  6 10  1  0  0  0  0
 10 11  1  0  0  0  0
 10 12  1  0  0  0  0
 11 13  2  0  0  0  0
 12 14  2  0  0  0  0
 14 15  1  0  0  0  0
 15 16  2  0  0  0  0
 15 17  1  0  0  0  0
  7  9  1  0  0  0  0
 13 14  1  0  0  0  0
M  END

>  <name>
Rufinamide

>  <ROTATABLE_BONDCOUNT>
3

>  <HBDScore>
0.8333333333333334

>  <dipole>
6.30

>  <logD>
1.27

>  <MPOScore>
5.833333333333333

>  <logDScore>
1.0

>  <MW>
238.198

>  <charge_dist(7.4)>
-0.00

>  <CNS>
TRUE

>  <ArRings>
2

>  <HBD>
1

>  <BALABAN_INDEX>
1.84

>  <bpKa>
-1

>  <TPSAScore>
1.0

>  <MWScore>
1.0

>  <bpKaScore>
1.0

>  <logPScore>
1.0

>  <MPO_area>
94.44

>  <TPSA>
73.80

>  <logP>
1.27

$$$$

  Mrv1722703221715202D          

 23 27  0  0  0  0            999 V2000
    0.0000    0.0000    0.0000 O   0  0  0  0  0  0  0  0  0  0  0  0
   -0.1102   -0.8105    0.0000 C   0  0  0  0  0  0  0  0  0  0  0  0
   -0.8818   -1.1218    0.0000 N   0  0  0  0  0  0  0  0  0  0  0  0
    0.5382   -1.3033    0.0000 C   0  0  1  0  0  0  0  0  0  0  0  0
   -1.0764   -1.9192    0.0000 C   0  0  2  0  0  0  0  0  0  0  0  0
   -1.5950   -0.6873    0.0000 C   0  0  2  0  0  0  0  0  0  0  0  0
    0.4280   -2.1138    0.0000 N   0  0  0  0  0  0  0  0  0  0  0  0
    1.2968   -0.9791    0.0000 C   0  0  0  0  0  0  0  0  0  0  0  0
   -0.5447   -2.5417    0.0000 C   0  0  0  0  0  0  0  0  0  0  0  0
   -1.9063   -1.9841    0.0000 C   0  0  0  0  0  0  0  0  0  0  0  0
   -2.2305   -1.2190    0.0000 C   0  0  2  0  0  0  0  0  0  0  0  0
   -2.3796   -0.4085    0.0000 C   0  0  0  0  0  0  0  0  0  0  0  0
    1.1866   -1.7896    0.0000 C   0  0  0  0  0  0  0  0  0  0  0  0
    1.9452   -1.4719    0.0000 C   0  0  0  0  0  0  0  0  0  0  0  0
    1.3941   -0.1556    0.0000 C   0  0  0  0  0  0  0  0  0  0  0  0
   -0.0130   -3.1642    0.0000 N   0  0  0  0  0  0  0  0  0  0  0  0
    1.8350   -2.2824    0.0000 C   0  0  0  0  0  0  0  0  0  0  0  0
    2.7038   -1.1477    0.0000 C   0  0  0  0  0  0  0  0  0  0  0  0
    2.1527    0.1686    0.0000 C   0  0  0  0  0  0  0  0  0  0  0  0
    1.7248   -3.0929    0.0000 O   0  0  0  0  0  0  0  0  0  0  0  0
    2.5936   -1.9582    0.0000 C   0  0  0  0  0  0  0  0  0  0  0  0
    1.5108   -1.5108    0.0000 C   0  0  0  0  0  0  0  0  0  0  0  0
    2.8011   -0.3242    0.0000 C   0  0  0  0  0  0  0  0  0  0  0  0
  1  2  2  0  0  0  0
  2  3  1  0  0  0  0
  2  4  1  0  0  0  0
  3  5  1  0  0  0  0
  6  3  1  6  0  0  0
  4  7  1  6  0  0  0
  4  8  1  0  0  0  0
  5  9  1  6  0  0  0
  5 10  1  0  0  0  0
  6 11  1  0  0  0  0
  6 12  1  0  0  0  0
  8 13  1  0  0  0  0
  8 14  1  0  0  0  0
  8 15  1  0  0  0  0
  9 16  3  0  0  0  0
 13 17  1  0  0  0  0
 14 18  1  0  0  0  0
 15 19  1  0  0  0  0
 17 20  1  0  0  0  0
 17 21  1  0  0  0  0
 17 22  1  0  0  0  0
 18 23  1  0  0  0  0
 11 10  1  6  0  0  0
 11 12  1  0  0  0  0
 18 21  1  0  0  0  0
 19 22  1  0  0  0  0
 19 23  1  0  0  0  0
M  END

>  <name>
Saxagliptin

>  <ROTATABLE_BONDCOUNT>
2

>  <HBDScore>
0.5

>  <dipole>
5.10

>  <logD>
-0.70

>  <MPOScore>
5.488333333333333

>  <logDScore>
1.0

>  <MW>
315.417

>  <charge_dist(7.4)>
0.76

>  <CNS>
TRUE

>  <ArRings>
0

>  <HBD>
2

>  <BALABAN_INDEX>
1.25

>  <bpKa>
7.9

>  <TPSAScore>
0.9883333333333335

>  <MWScore>
1.0

>  <bpKaScore>
1.0

>  <logPScore>
1.0

>  <MPO_area>
83.04

>  <TPSA>
90.35

>  <logP>
-0.08

$$$$

  Mrv1722703221715202D          

 14 14  0  0  0  0            999 V2000
    0.0000    0.0000    0.0000 N   0  0  0  0  0  0  0  0  0  0  0  0
    0.1711   -0.7985    0.0000 C   0  0  2  0  0  0  0  0  0  0  0  0
    0.6021    0.5640    0.0000 C   0  0  0  0  0  0  0  0  0  0  0  0
   -0.7922    0.2535    0.0000 C   0  0  0  0  0  0  0  0  0  0  0  0
    0.9506   -1.0393    0.0000 C   0  0  0  0  0  0  0  0  0  0  0  0
   -0.4436   -1.3499    0.0000 C   0  0  0  0  0  0  0  0  0  0  0  0
    0.4183    1.3752    0.0000 C   0  0  0  0  0  0  0  0  0  0  0  0
    1.5527   -0.4753    0.0000 C   0  0  0  0  0  0  0  0  0  0  0  0
    0.2345    2.1865    0.0000 C   0  0  0  0  0  0  0  0  0  0  0  0
    1.3689    0.3359    0.0000 C   0  0  0  0  0  0  0  0  0  0  0  0
    2.3322   -0.7161    0.0000 C   0  0  0  0  0  0  0  0  0  0  0  0
    1.9710    0.8999    0.0000 C   0  0  0  0  0  0  0  0  0  0  0  0
    2.9343   -0.1521    0.0000 C   0  0  0  0  0  0  0  0  0  0  0  0
    2.7505    0.6591    0.0000 C   0  0  0  0  0  0  0  0  0  0  0  0
  2  1  1  6  0  0  0
  1  3  1  0  0  0  0
  1  4  1  0  0  0  0
  2  5  1  0  0  0  0
  2  6  1  0  0  0  0
  3  7  1  0  0  0  0
  5  8  1  0  0  0  0
  7  9  3  0  0  0  0
  8 10  2  0  0  0  0
  8 11  1  0  0  0  0
 10 12  1  0  0  0  0
 11 13  2  0  0  0  0
 12 14  2  0  0  0  0
 13 14  1  0  0  0  0
M  END

>  <name>
Selegiline

>  <ROTATABLE_BONDCOUNT>
4

>  <HBDScore>
1.0

>  <dipole>
0.70

>  <logD>
1.55

>  <MPOScore>
4.665

>  <logDScore>
1.0

>  <MW>
187.286

>  <charge_dist(7.4)>
0.95

>  <CNS>
TRUE

>  <ArRings>
1

>  <HBD>
0

>  <BALABAN_INDEX>
2.20

>  <bpKa>
8.67

>  <TPSAScore>
0.0

>  <MWScore>
1.0

>  <bpKaScore>
0.665

>  <logPScore>
1.0

>  <MPO_area>
61.08

>  <TPSA>
3.24

>  <logP>
2.85

$$$$

  Mrv1722703221715202D          

 31 35  0  0  0  0            999 V2000
    0.0000    0.0000    0.0000 Cl  0  0  0  0  0  0  0  0  0  0  0  0
    0.2998   -0.7627    0.0000 C   0  0  0  0  0  0  0  0  0  0  0  0
   -0.2216   -1.4080    0.0000 C   0  0  0  0  0  0  0  0  0  0  0  0
    1.1147   -0.8735    0.0000 C   0  0  0  0  0  0  0  0  0  0  0  0
    0.0782   -2.1706    0.0000 C   0  0  0  0  0  0  0  0  0  0  0  0
    1.4145   -1.6361    0.0000 C   0  0  0  0  0  0  0  0  0  0  0  0
    0.8930   -2.2815    0.0000 C   0  0  0  0  0  0  0  0  0  0  0  0
   -0.2933   -2.9072    0.0000 C   0  0  0  0  0  0  0  0  0  0  0  0
    1.0234   -3.0897    0.0000 N   0  0  0  0  0  0  0  0  0  0  0  0
    0.2933   -3.4809    0.0000 C   0  0  0  0  0  0  0  0  0  0  0  0
   -1.1147   -3.0376    0.0000 C   0  0  0  0  0  0  0  0  0  0  0  0
    1.7600   -3.4483    0.0000 C   0  0  0  0  0  0  0  0  0  0  0  0
   -1.6492   -2.3923    0.0000 C   0  0  0  0  0  0  0  0  0  0  0  0
   -1.4080   -3.8068    0.0000 C   0  0  0  0  0  0  0  0  0  0  0  0
    1.8056   -4.2696    0.0000 C   0  0  0  0  0  0  0  0  0  0  0  0
    2.4444   -2.9789    0.0000 C   0  0  0  0  0  0  0  0  0  0  0  0
   -2.4705   -2.5226    0.0000 C   0  0  0  0  0  0  0  0  0  0  0  0
   -2.2293   -3.9372    0.0000 C   0  0  0  0  0  0  0  0  0  0  0  0
    2.5422   -4.6281    0.0000 C   0  0  0  0  0  0  0  0  0  0  0  0
    3.1810   -3.3375    0.0000 C   0  0  0  0  0  0  0  0  0  0  0  0
   -2.7638   -3.2918    0.0000 N   0  0  0  0  0  0  0  0  0  0  0  0
    3.2266   -4.1588    0.0000 C   0  0  0  0  0  0  0  0  0  0  0  0
   -3.5852   -3.4222    0.0000 C   0  0  0  0  0  0  0  0  0  0  0  0
    3.9632   -4.5173    0.0000 F   0  0  0  0  0  0  0  0  0  0  0  0
   -4.1196   -2.7768    0.0000 C   0  0  0  0  0  0  0  0  0  0  0  0
   -4.9410   -2.9072    0.0000 N   0  0  0  0  0  0  0  0  0  0  0  0
   -5.3125   -3.6438    0.0000 C   0  0  0  0  0  0  0  0  0  0  0  0
   -5.5407   -2.3206    0.0000 C   0  0  0  0  0  0  0  0  0  0  0  0
   -4.9345   -4.3739    0.0000 O   0  0  0  0  0  0  0  0  0  0  0  0
   -6.1404   -3.5200    0.0000 N   0  0  0  0  0  0  0  0  0  0  0  0
   -6.2838   -2.6986    0.0000 C   0  0  0  0  0  0  0  0  0  0  0  0
  1  2  1  0  0  0  0
  2  3  2  0  0  0  0
  2  4  1  0  0  0  0
  3  5  1  0  0  0  0
  4  6  2  0  0  0  0
  5  7  2  0  0  0  0
  5  8  1  0  0  0  0
  7  9  1  0  0  0  0
  8 10  2  0  0  0  0
  8 11  1  0  0  0  0
  9 12  1  0  0  0  0
 11 13  1  0  0  0  0
 11 14  1  0  0  0  0
 12 15  2  0  0  0  0
 12 16  1  0  0  0  0
 13 17  1  0  0  0  0
 14 18  1  0  0  0  0
 15 19  1  0  0  0  0
 16 20  2  0  0  0  0
 17 21  1  0  0  0  0
 19 22  2  0  0  0  0
 21 23  1  0  0  0  0
 22 24  1  0  0  0  0
 23 25  1  0  0  0  0
 25 26  1  0  0  0  0
 26 27  1  0  0  0  0
 26 28  1  0  0  0  0
 27 29  2  0  0  0  0
 27 30  1  0  0  0  0
 28 31  1  0  0  0  0
  6  7  1  0  0  0  0
  9 10  1  0  0  0  0
 18 21  1  0  0  0  0
 20 22  1  0  0  0  0
 30 31  1  0  0  0  0
M  END

>  <name>
Sertindole

>  <ROTATABLE_BONDCOUNT>
5

>  <HBDScore>
0.8333333333333334

>  <dipole>
7.36

>  <logD>
2.96

>  <MPOScore>
3.9201190476190475

>  <logDScore>
0.52

>  <MW>
440.95

>  <charge_dist(7.4)>
0.94

>  <CNS>
TRUE

>  <ArRings>
3

>  <HBD>
1

>  <BALABAN_INDEX>
1.00

>  <bpKa>
8.56

>  <TPSAScore>
1.0

>  <MWScore>
0.42178571428571443

>  <bpKaScore>
0.7199999999999998

>  <logPScore>
0.4249999999999998

>  <MPO_area>
43.83

>  <TPSA>
40.51

>  <logP>
4.15

$$$$

  Mrv1722703221715202D          

 20 22  0  0  0  0            999 V2000
    0.0000    0.0000    0.0000 Cl  0  0  0  0  0  0  0  0  0  0  0  0
    0.5301    0.6322    0.0000 C   0  0  0  0  0  0  0  0  0  0  0  0
    0.2491    1.4177    0.0000 C   0  0  0  0  0  0  0  0  0  0  0  0
    1.3347    0.4917    0.0000 C   0  0  0  0  0  0  0  0  0  0  0  0
   -0.5684    1.5710    0.0000 Cl  0  0  0  0  0  0  0  0  0  0  0  0
    0.7791    2.0499    0.0000 C   0  0  0  0  0  0  0  0  0  0  0  0
    1.8647    1.1240    0.0000 C   0  0  0  0  0  0  0  0  0  0  0  0
    1.5837    1.9094    0.0000 C   0  0  0  0  0  0  0  0  0  0  0  0
    2.6693    0.9834    0.0000 C   0  0  1  0  0  0  0  0  0  0  0  0
    3.1994    1.6156    0.0000 C   0  0  0  0  0  0  0  0  0  0  0  0
    2.9375    0.2107    0.0000 C   0  0  0  0  0  0  0  0  0  0  0  0
    4.0040    1.4752    0.0000 C   0  0  0  0  0  0  0  0  0  0  0  0
    2.9184    2.4011    0.0000 C   0  0  0  0  0  0  0  0  0  0  0  0
    3.7422    0.0703    0.0000 C   0  0  0  0  0  0  0  0  0  0  0  0
    4.5341    2.1074    0.0000 C   0  0  0  0  0  0  0  0  0  0  0  0
    4.2722    0.7025    0.0000 C   0  0  2  0  0  0  0  0  0  0  0  0
    3.4484    3.0333    0.0000 C   0  0  0  0  0  0  0  0  0  0  0  0
    4.2531    2.8929    0.0000 C   0  0  0  0  0  0  0  0  0  0  0  0
    5.0769    0.5619    0.0000 N   0  0  0  0  0  0  0  0  0  0  0  0
    5.3451   -0.2107    0.0000 C   0  0  0  0  0  0  0  0  0  0  0  0
  1  2  1  0  0  0  0
  2  3  2  0  0  0  0
  2  4  1  0  0  0  0
  3  5  1  0  0  0  0
  3  6  1  0  0  0  0
  4  7  2  0  0  0  0
  6  8  2  0  0  0  0
  9  7  1  1  0  0  0
  9 10  1  0  0  0  0
  9 11  1  0  0  0  0
 10 12  2  0  0  0  0
 10 13  1  0  0  0  0
 11 14  1  0  0  0  0
 12 15  1  0  0  0  0
 12 16  1  0  0  0  0
 13 17  2  0  0  0  0
 15 18  2  0  0  0  0
 16 19  1  1  0  0  0
 19 20  1  0  0  0  0
  7  8  1  0  0  0  0
 14 16  1  0  0  0  0
 17 18  1  0  0  0  0
M  END

>  <name>
Sertraline

>  <ROTATABLE_BONDCOUNT>
2

>  <HBDScore>
0.8333333333333334

>  <dipole>
3.02

>  <logD>
3.02

>  <MPOScore>
2.543333333333333

>  <logDScore>
0.49

>  <MW>
306.23

>  <charge_dist(7.4)>
0.99

>  <CNS>
TRUE

>  <ArRings>
2

>  <HBD>
1

>  <BALABAN_INDEX>
1.54

>  <bpKa>
9.56

>  <TPSAScore>
0.0

>  <MWScore>
1.0

>  <bpKaScore>
0.21999999999999975

>  <logPScore>
0.0

>  <MPO_area>
22.49

>  <TPSA>
12.03

>  <logP>
5.15

$$$$

  Mrv1722703221715202D          

 25 27  0  0  0  0            999 V2000
    0.0000    0.0000    0.0000 S   0  0  2  0  0  0  0  0  0  0  0  0
   -0.0194    0.8265    0.0000 O   0  0  0  0  0  0  0  0  0  0  0  0
   -0.7103   -0.4133    0.0000 C   0  0  0  0  0  0  0  0  0  0  0  0
    0.7103   -0.3939    0.0000 C   0  0  0  0  0  0  0  0  0  0  0  0
   -0.7038   -1.2269    0.0000 C   0  0  0  0  0  0  0  0  0  0  0  0
   -1.4335   -0.0065    0.0000 C   0  0  0  0  0  0  0  0  0  0  0  0
   -1.4141   -1.6401    0.0000 C   0  0  0  0  0  0  0  0  0  0  0  0
   -2.1438   -0.4197    0.0000 C   0  0  0  0  0  0  0  0  0  0  0  0
   -2.1374   -1.2333    0.0000 C   0  0  0  0  0  0  0  0  0  0  0  0
   -2.8476   -1.6466    0.0000 C   0  0  0  0  0  0  0  0  0  0  0  0
   -3.5708   -1.2398    0.0000 C   0  0  0  0  0  0  0  0  0  0  0  0
   -3.6742   -0.4197    0.0000 C   0  0  0  0  0  0  0  0  0  0  0  0
   -4.3199   -1.5756    0.0000 C   0  0  0  0  0  0  0  0  0  0  0  0
   -4.4878   -0.2518    0.0000 C   0  0  0  0  0  0  0  0  0  0  0  0
   -3.1382    0.2002    0.0000 C   0  0  0  0  0  0  0  0  0  0  0  0
   -4.8817   -0.9686    0.0000 C   0  0  0  0  0  0  0  0  0  0  0  0
   -4.4878   -2.3762    0.0000 C   0  0  0  0  0  0  0  0  0  0  0  0
   -4.7590    0.5295    0.0000 C   0  0  0  0  0  0  0  0  0  0  0  0
   -3.4095    0.9815    0.0000 C   0  0  0  0  0  0  0  0  0  0  0  0
   -5.7017   -1.0590    0.0000 C   0  0  0  0  0  0  0  0  0  0  0  0
   -4.2231    1.1494    0.0000 C   0  0  0  0  0  0  0  0  0  0  0  0
   -6.1990   -0.3939    0.0000 C   0  0  0  0  0  0  0  0  0  0  0  0
   -4.4942    1.9307    0.0000 F   0  0  0  0  0  0  0  0  0  0  0  0
   -5.8826    0.3681    0.0000 O   0  0  0  0  0  0  0  0  0  0  0  0
   -7.0190   -0.4843    0.0000 O   0  0  0  0  0  0  0  0  0  0  0  0
  1  2  2  0  0  0  0
  1  3  1  0  0  0  0
  1  4  1  1  0  0  0
  3  5  2  0  0  0  0
  3  6  1  0  0  0  0
  5  7  1  0  0  0  0
  6  8  2  0  0  0  0
  7  9  2  0  0  0  0
  9 10  1  0  0  0  0
 10 11  2  0  0  0  0
 11 12  1  0  0  0  0
 11 13  1  0  0  0  0
 12 14  2  0  0  0  0
 12 15  1  0  0  0  0
 13 16  2  0  0  0  0
 13 17  1  0  0  0  0
 14 18  1  0  0  0  0
 15 19  2  0  0  0  0
 16 20  1  0  0  0  0
 18 21  2  0  0  0  0
 20 22  1  0  0  0  0
 21 23  1  0  0  0  0
 22 24  2  0  0  0  0
 22 25  1  0  0  0  0
  8  9  1  0  0  0  0
 14 16  1  0  0  0  0
 19 21  1  0  0  0  0
M  END

>  <name>
Sulindac

>  <ROTATABLE_BONDCOUNT>
4

>  <HBDScore>
0.8333333333333334

>  <dipole>
2.64

>  <logD>
-0.18

>  <MPOScore>
5.833333333333333

>  <logDScore>
1.0

>  <MW>
356.41

>  <charge_dist(7.4)>
-1.00

>  <CNS>
TRUE

>  <ArRings>
2

>  <HBD>
1

>  <BALABAN_INDEX>
1.46

>  <bpKa>
-8.13

>  <TPSAScore>
1.0

>  <MWScore>
1.0

>  <bpKaScore>
1.0

>  <logPScore>
1.0

>  <MPO_area>
94.44

>  <TPSA>
54.37

>  <logP>
2.93

$$$$

  Mrv1722703221715202D          

 32 36  0  0  0  0            999 V2000
    0.0000    0.0000    0.0000 Cl  0  0  0  0  0  0  0  0  0  0  0  0
   -0.6145   -0.5498    0.0000 C   0  0  0  0  0  0  0  0  0  0  0  0
   -1.4037   -0.2911    0.0000 C   0  0  0  0  0  0  0  0  0  0  0  0
   -0.4463   -1.3455    0.0000 C   0  0  0  0  0  0  0  0  0  0  0  0
   -2.0182   -0.8345    0.0000 C   0  0  0  0  0  0  0  0  0  0  0  0
   -1.0608   -1.8953    0.0000 C   0  0  0  0  0  0  0  0  0  0  0  0
   -2.8397   -0.7439    0.0000 N   0  0  0  0  0  0  0  0  0  0  0  0
   -1.8500   -1.6301    0.0000 C   0  0  0  0  0  0  0  0  0  0  0  0
   -3.1761   -1.4878    0.0000 C   0  0  0  0  0  0  0  0  0  0  0  0
   -2.5680   -2.0376    0.0000 O   0  0  0  0  0  0  0  0  0  0  0  0
   -3.9847   -1.6560    0.0000 N   0  0  0  0  0  0  0  0  0  0  0  0
   -4.4957   -1.0026    0.0000 C   0  0  0  0  0  0  0  0  0  0  0  0
   -4.1787   -2.4516    0.0000 C   0  0  0  0  0  0  0  0  0  0  0  0
   -5.3237   -0.9897    0.0000 C   0  0  0  0  0  0  0  0  0  0  0  0
   -4.9291   -2.7945    0.0000 C   0  0  0  0  0  0  0  0  0  0  0  0
   -5.8477   -1.6236    0.0000 N   0  0  0  0  0  0  0  0  0  0  0  0
   -5.6730   -2.4257    0.0000 C   0  0  1  0  0  0  0  0  0  0  0  0
   -6.6562   -1.4296    0.0000 C   0  0  0  0  0  0  0  0  0  0  0  0
   -6.3263   -2.9238    0.0000 C   0  0  0  0  0  0  0  0  0  0  0  0
   -7.2254   -2.0182    0.0000 O   0  0  0  0  0  0  0  0  0  0  0  0
   -6.8955   -0.6339    0.0000 C   0  0  0  0  0  0  0  0  0  0  0  0
   -7.7041   -0.4399    0.0000 C   0  0  0  0  0  0  0  0  0  0  0  0
   -6.3392   -0.0323    0.0000 C   0  0  0  0  0  0  0  0  0  0  0  0
   -8.2734   -1.0285    0.0000 N   0  0  0  0  0  0  0  0  0  0  0  0
   -7.9435    0.3558    0.0000 C   0  0  0  0  0  0  0  0  0  0  0  0
   -6.5786    0.7633    0.0000 C   0  0  0  0  0  0  0  0  0  0  0  0
   -9.0949   -0.9185    0.0000 N   0  0  0  0  0  0  0  0  0  0  0  0
   -8.1311   -1.8306    0.0000 N   0  0  0  0  0  0  0  0  0  0  0  0
   -7.3872    0.9574    0.0000 C   0  0  0  0  0  0  0  0  0  0  0  0
   -6.0223    1.3649    0.0000 C   0  0  0  0  0  0  0  0  0  0  0  0
   -9.4506   -1.6560    0.0000 C   0  0  0  0  0  0  0  0  0  0  0  0
   -8.8620   -2.2187    0.0000 C   0  0  0  0  0  0  0  0  0  0  0  0
  1  2  1  0  0  0  0
  2  3  2  0  0  0  0
  2  4  1  0  0  0  0
  3  5  1  0  0  0  0
  4  6  2  0  0  0  0
  5  7  1  0  0  0  0
  5  8  2  0  0  0  0
  7  9  2  0  0  0  0
  8 10  1  0  0  0  0
  9 11  1  0  0  0  0
 11 12  1  0  0  0  0
 11 13  1  0  0  0  0
 12 14  1  0  0  0  0
 13 15  1  0  0  0  0
 14 16  1  0  0  0  0
 15 17  1  0  0  0  0
 16 18  1  0  0  0  0
 17 19  1  6  0  0  0
 18 20  2  0  0  0  0
 18 21  1  0  0  0  0
 21 22  2  0  0  0  0
 21 23  1  0  0  0  0
 22 24  1  0  0  0  0
 22 25  1  0  0  0  0
 23 26  2  0  0  0  0
 24 27  1  0  0  0  0
 24 28  1  0  0  0  0
 25 29  2  0  0  0  0
 26 30  1  0  0  0  0
 27 31  2  0  0  0  0
 28 32  2  0  0  0  0
  6  8  1  0  0  0  0
  9 10  1  0  0  0  0
 16 17  1  0  0  0  0
 26 29  1  0  0  0  0
 31 32  1  0  0  0  0
M  END

>  <name>
Suvorexant

>  <ROTATABLE_BONDCOUNT>
3

>  <HBDScore>
1.0

>  <dipole>
5.62

>  <logD>
4.04

>  <MPOScore>
3.8305

>  <logDScore>
0.0

>  <MW>
450.93

>  <charge_dist(7.4)>
0.00

>  <CNS>
TRUE

>  <ArRings>
4

>  <HBD>
0

>  <BALABAN_INDEX>
1.22

>  <bpKa>
0.26

>  <TPSAScore>
1.0

>  <MWScore>
0.3504999999999999

>  <bpKaScore>
1.0

>  <logPScore>
0.48

>  <MPO_area>
44.14

>  <TPSA>
80.29

>  <logP>
4.04

$$$$

  Mrv1722703221715202D          

 15 17  0  0  0  0            999 V2000
    0.0000    0.0000    0.0000 N   0  0  0  0  0  0  0  0  0  0  0  0
   -0.4190    0.7154    0.0000 C   0  0  0  0  0  0  0  0  0  0  0  0
   -0.4190   -0.7025    0.0000 C   0  0  0  0  0  0  0  0  0  0  0  0
   -1.2440    0.7219    0.0000 C   0  0  0  0  0  0  0  0  0  0  0  0
   -0.0129    1.4309    0.0000 C   0  0  0  0  0  0  0  0  0  0  0  0
   -1.2440   -0.6961    0.0000 C   0  0  0  0  0  0  0  0  0  0  0  0
   -0.0129   -1.4051    0.0000 C   0  0  0  0  0  0  0  0  0  0  0  0
   -1.6565    0.0193    0.0000 C   0  0  0  0  0  0  0  0  0  0  0  0
   -1.6565    1.4373    0.0000 C   0  0  0  0  0  0  0  0  0  0  0  0
   -0.4318    2.1463    0.0000 C   0  0  0  0  0  0  0  0  0  0  0  0
   -1.6565   -1.3986    0.0000 C   0  0  0  0  0  0  0  0  0  0  0  0
   -0.4318   -2.1076    0.0000 C   0  0  0  0  0  0  0  0  0  0  0  0
   -2.4815    0.0258    0.0000 N   0  0  0  0  0  0  0  0  0  0  0  0
   -1.2569    2.1528    0.0000 C   0  0  0  0  0  0  0  0  0  0  0  0
   -1.2569   -2.1012    0.0000 C   0  0  0  0  0  0  0  0  0  0  0  0
  1  2  1  0  0  0  0
  1  3  2  0  0  0  0
  2  4  2  0  0  0  0
  2  5  1  0  0  0  0
  3  6  1  0  0  0  0
  3  7  1  0  0  0  0
  4  8  1  0  0  0  0
  4  9  1  0  0  0  0
  5 10  2  0  0  0  0
  6 11  1  0  0  0  0
  7 12  1  0  0  0  0
  8 13  1  0  0  0  0
  9 14  2  0  0  0  0
 11 15  1  0  0  0  0
  6  8  2  0  0  0  0
 10 14  1  0  0  0  0
 12 15  1  0  0  0  0
M  END

>  <name>
Tacrine

>  <ROTATABLE_BONDCOUNT>
0

>  <HBDScore>
0.8333333333333334

>  <dipole>
6.75

>  <logD>
1.25

>  <MPOScore>
5.303833333333333

>  <logDScore>
1.0

>  <MW>
198.269

>  <charge_dist(7.4)>
0.97

>  <CNS>
TRUE

>  <ArRings>
2

>  <HBD>
1

>  <BALABAN_INDEX>
1.66

>  <bpKa>
8.95

>  <TPSAScore>
0.9454999999999999

>  <MWScore>
1.0

>  <bpKaScore>
0.5250000000000004

>  <logPScore>
1.0

>  <MPO_area>
78.27

>  <TPSA>
38.91

>  <logP>
2.63

$$$$

  Mrv1722703221715202D          

 29 34  0  0  0  0            999 V2000
    0.0000    0.0000    0.0000 O   0  0  0  0  0  0  0  0  0  0  0  0
   -0.6964    0.4514    0.0000 C   0  0  0  0  0  0  0  0  0  0  0  0
   -1.4315    0.0838    0.0000 N   0  0  0  0  0  0  0  0  0  0  0  0
   -0.6642    1.2767    0.0000 C   0  0  2  0  0  0  0  0  0  0  0  0
   -2.1279    0.5352    0.0000 C   0  0  0  0  0  0  0  0  0  0  0  0
   -1.4766   -0.7286    0.0000 C   0  0  0  0  0  0  0  0  0  0  0  0
   -1.3605    1.7281    0.0000 N   0  0  0  0  0  0  0  0  0  0  0  0
    0.0580    1.6572    0.0000 C   0  0  0  0  0  0  0  0  0  0  0  0
   -2.0957    1.3605    0.0000 C   0  0  0  0  0  0  0  0  0  0  0  0
   -1.3283    2.5535    0.0000 C   0  0  2  0  0  0  0  0  0  0  0  0
    0.0903    2.4826    0.0000 C   0  0  0  0  0  0  0  0  0  0  0  0
   -2.7921    1.8119    0.0000 O   0  0  0  0  0  0  0  0  0  0  0  0
   -2.0248    3.0048    0.0000 C   0  0  0  0  0  0  0  0  0  0  0  0
   -0.6061    2.9339    0.0000 C   0  0  0  0  0  0  0  0  0  0  0  0
    0.7157    3.0113    0.0000 C   0  0  0  0  0  0  0  0  0  0  0  0
   -2.7598    2.6373    0.0000 C   0  0  0  0  0  0  0  0  0  0  0  0
   -1.9925    3.8302    0.0000 C   0  0  0  0  0  0  0  0  0  0  0  0
   -0.4062    3.7335    0.0000 N   0  0  0  0  0  0  0  0  0  0  0  0
    0.4127    3.7786    0.0000 C   0  0  0  0  0  0  0  0  0  0  0  0
    1.5218    2.8952    0.0000 C   0  0  0  0  0  0  0  0  0  0  0  0
   -3.4562    3.0887    0.0000 C   0  0  0  0  0  0  0  0  0  0  0  0
   -2.6889    4.2816    0.0000 C   0  0  0  0  0  0  0  0  0  0  0  0
    0.9156    4.4234    0.0000 C   0  0  0  0  0  0  0  0  0  0  0  0
    2.0248    3.5400    0.0000 C   0  0  0  0  0  0  0  0  0  0  0  0
   -4.2558    2.8759    0.0000 O   0  0  0  0  0  0  0  0  0  0  0  0
   -3.4240    3.9140    0.0000 C   0  0  0  0  0  0  0  0  0  0  0  0
    1.7217    4.3074    0.0000 C   0  0  0  0  0  0  0  0  0  0  0  0
   -4.7136    3.5658    0.0000 C   0  0  0  0  0  0  0  0  0  0  0  0
   -4.1978    4.2107    0.0000 O   0  0  0  0  0  0  0  0  0  0  0  0
  1  2  2  0  0  0  0
  2  3  1  0  0  0  0
  2  4  1  0  0  0  0
  3  5  1  0  0  0  0
  3  6  1  0  0  0  0
  4  7  1  6  0  0  0
  4  8  1  0  0  0  0
  5  9  1  0  0  0  0
  7 10  1  0  0  0  0
  8 11  1  0  0  0  0
  9 12  2  0  0  0  0
 10 13  1  6  0  0  0
 10 14  1  0  0  0  0
 11 15  1  0  0  0  0
 13 16  2  0  0  0  0
 13 17  1  0  0  0  0
 14 18  1  0  0  0  0
 15 19  2  0  0  0  0
 15 20  1  0  0  0  0
 16 21  1  0  0  0  0
 17 22  2  0  0  0  0
 19 23  1  0  0  0  0
 20 24  2  0  0  0  0
 21 25  1  0  0  0  0
 21 26  2  0  0  0  0
 23 27  2  0  0  0  0
 25 28  1  0  0  0  0
 26 29  1  0  0  0  0
  7  9  1  0  0  0  0
 11 14  2  0  0  0  0
 18 19  1  0  0  0  0
 22 26  1  0  0  0  0
 24 27  1  0  0  0  0
 28 29  1  0  0  0  0
M  END

>  <name>
Tadalafil

>  <ROTATABLE_BONDCOUNT>
1

>  <HBDScore>
0.8333333333333334

>  <dipole>
2.93

>  <logD>
1.64

>  <MPOScore>
5.623254761904762

>  <logDScore>
1.0

>  <MW>
389.411

>  <charge_dist(7.4)>
-0.00

>  <CNS>
TRUE

>  <ArRings>
3

>  <HBD>
1

>  <BALABAN_INDEX>
1.10

>  <bpKa>
-4.23

>  <TPSAScore>
1.0

>  <MWScore>
0.7899214285714286

>  <bpKaScore>
1.0

>  <logPScore>
1.0

>  <MPO_area>
88.03

>  <TPSA>
74.87

>  <logP>
1.64

$$$$

  Mrv1722703221715202D          

 14 15  0  0  0  0            999 V2000
    0.0000    0.0000    0.0000 S   0  0  0  0  0  0  0  0  0  0  0  0
    0.3970    0.7171    0.0000 C   0  0  0  0  0  0  0  0  0  0  0  0
   -0.8068    0.1729    0.0000 C   0  0  0  0  0  0  0  0  0  0  0  0
   -0.1601    1.3255    0.0000 N   0  0  0  0  0  0  0  0  0  0  0  0
    1.2038    0.8132    0.0000 N   0  0  0  0  0  0  0  0  0  0  0  0
   -0.9029    0.9925    0.0000 C   0  0  0  0  0  0  0  0  0  0  0  0
   -1.3895   -0.3970    0.0000 C   0  0  0  0  0  0  0  0  0  0  0  0
   -1.6008    1.4343    0.0000 C   0  0  0  0  0  0  0  0  0  0  0  0
   -2.2091   -0.3010    0.0000 C   0  0  0  0  0  0  0  0  0  0  0  0
   -2.3820    1.1718    0.0000 C   0  0  0  0  0  0  0  0  0  0  0  0
   -2.6509    0.3970    0.0000 N   0  0  0  0  0  0  0  0  0  0  0  0
   -3.4705    0.3138    0.0000 C   0  0  0  0  0  0  0  0  0  0  0  0
   -3.9636    0.9797    0.0000 C   0  0  0  0  0  0  0  0  0  0  0  0
   -4.7832    0.8965    0.0000 C   0  0  0  0  0  0  0  0  0  0  0  0
  1  2  1  0  0  0  0
  1  3  1  0  0  0  0
  2  4  2  0  0  0  0
  2  5  1  0  0  0  0
  3  6  2  0  0  0  0
  3  7  1  0  0  0  0
  6  8  1  0  0  0  0
  7  9  1  0  0  0  0
  8 10  1  0  0  0  0
  9 11  1  0  0  0  0
 11 12  1  0  0  0  0
 12 13  1  0  0  0  0
 13 14  2  0  0  0  0
  4  6  1  0  0  0  0
 10 11  1  0  0  0  0
M  END

>  <name>
Talipexole

>  <ROTATABLE_BONDCOUNT>
2

>  <HBDScore>
0.8333333333333334

>  <dipole>
2.27

>  <logD>
0.76

>  <MPOScore>
5.718333333333333

>  <logDScore>
1.0

>  <MW>
209.31

>  <charge_dist(7.4)>
0.87

>  <CNS>
TRUE

>  <ArRings>
1

>  <HBD>
1

>  <BALABAN_INDEX>
1.86

>  <bpKa>
8.23

>  <TPSAScore>
1.0

>  <MWScore>
1.0

>  <bpKaScore>
0.8849999999999998

>  <logPScore>
1.0

>  <MPO_area>
90.93

>  <TPSA>
42.15

>  <logP>
1.65

$$$$

  Mrv1722703221715202D          

 28 30  0  0  0  0            999 V2000
    0.0000    0.0000    0.0000 O   0  0  0  0  0  0  0  0  0  0  0  0
    0.7798    0.2621    0.0000 C   0  0  0  0  0  0  0  0  0  0  0  0
   -0.6264    0.5625    0.0000 C   0  0  0  0  0  0  0  0  0  0  0  0
    0.9460    1.0802    0.0000 C   0  0  0  0  0  0  0  0  0  0  0  0
    1.3935   -0.2876    0.0000 C   0  0  0  0  0  0  0  0  0  0  0  0
   -1.4190    0.3132    0.0000 C   0  0  0  0  0  0  0  0  0  0  0  0
    1.7258    1.3423    0.0000 C   0  0  0  0  0  0  0  0  0  0  0  0
    2.1733   -0.0255    0.0000 C   0  0  0  0  0  0  0  0  0  0  0  0
   -2.0454    0.8757    0.0000 N   0  0  0  0  0  0  0  0  0  0  0  0
    2.3395    0.7926    0.0000 C   0  0  0  0  0  0  0  0  0  0  0  0
   -2.8380    0.6264    0.0000 C   0  0  0  0  0  0  0  0  0  0  0  0
   -1.8792    1.6939    0.0000 C   0  0  0  0  0  0  0  0  0  0  0  0
    3.1193    1.0547    0.0000 C   0  0  0  0  0  0  0  0  0  0  0  0
    3.2855    1.8728    0.0000 C   0  0  0  0  0  0  0  0  0  0  0  0
    3.7329    0.5050    0.0000 C   0  0  0  0  0  0  0  0  0  0  0  0
    4.0653    2.1349    0.0000 C   0  0  0  0  0  0  0  0  0  0  0  0
    2.6590    2.4353    0.0000 C   0  0  0  0  0  0  0  0  0  0  0  0
    3.5539   -0.3004    0.0000 C   0  0  0  0  0  0  0  0  0  0  0  0
    4.5127    0.7670    0.0000 C   0  0  0  0  0  0  0  0  0  0  0  0
    4.2314    2.9531    0.0000 C   0  0  0  0  0  0  0  0  0  0  0  0
    2.8252    3.2535    0.0000 C   0  0  0  0  0  0  0  0  0  0  0  0
    2.7613   -0.5497    0.0000 C   0  0  0  0  0  0  0  0  0  0  0  0
    4.1675   -0.8501    0.0000 C   0  0  0  0  0  0  0  0  0  0  0  0
    5.1263    0.2173    0.0000 C   0  0  0  0  0  0  0  0  0  0  0  0
    3.6050    3.5156    0.0000 C   0  0  0  0  0  0  0  0  0  0  0  0
    2.5824   -1.3551    0.0000 C   0  0  0  0  0  0  0  0  0  0  0  0
    3.9886   -1.6555    0.0000 C   0  0  0  0  0  0  0  0  0  0  0  0
    3.1959   -1.9048    0.0000 C   0  0  0  0  0  0  0  0  0  0  0  0
  1  2  1  0  0  0  0
  1  3  1  0  0  0  0
  2  4  2  0  0  0  0
  2  5  1  0  0  0  0
  3  6  1  0  0  0  0
  4  7  1  0  0  0  0
  5  8  2  0  0  0  0
  6  9  1  0  0  0  0
  7 10  2  0  0  0  0
  9 11  1  0  0  0  0
  9 12  1  0  0  0  0
 10 13  1  0  0  0  0
 13 14  1  0  0  0  0
 13 15  2  0  0  0  0
 14 16  2  0  0  0  0
 14 17  1  0  0  0  0
 15 18  1  0  0  0  0
 15 19  1  0  0  0  0
 16 20  1  0  0  0  0
 17 21  2  0  0  0  0
 18 22  2  0  0  0  0
 18 23  1  0  0  0  0
 19 24  1  0  0  0  0
 20 25  2  0  0  0  0
 22 26  1  0  0  0  0
 23 27  2  0  0  0  0
 26 28  2  0  0  0  0
  8 10  1  0  0  0  0
 21 25  1  0  0  0  0
 27 28  1  0  0  0  0
M  END

>  <name>
Tamoxifen

>  <ROTATABLE_BONDCOUNT>
8

>  <HBDScore>
1.0

>  <dipole>
14.88

>  <logD>
4.97

>  <MPOScore>
2.5376857142857143

>  <logDScore>
0.0

>  <MW>
371.524

>  <charge_dist(7.4)>
0.96

>  <CNS>
TRUE

>  <ArRings>
3

>  <HBD>
0

>  <BALABAN_INDEX>
1.50

>  <bpKa>
8.76

>  <TPSAScore>
0.0

>  <MWScore>
0.9176857142857143

>  <bpKaScore>
0.6200000000000001

>  <logPScore>
0.0

>  <MPO_area>
24.78

>  <TPSA>
12.47

>  <logP>
6.35

$$$$

  Mrv1722703221715202D          

 16 16  0  0  0  0            999 V2000
    0.0000    0.0000    0.0000 O   0  0  0  0  0  0  0  0  0  0  0  0
   -0.0514    0.8234    0.0000 C   0  0  0  0  0  0  0  0  0  0  0  0
   -0.7913    1.1965    0.0000 C   0  0  0  0  0  0  0  0  0  0  0  0
    0.6240    1.2801    0.0000 C   0  0  0  0  0  0  0  0  0  0  0  0
   -0.8427    2.0199    0.0000 C   0  0  0  0  0  0  0  0  0  0  0  0
    0.5725    2.1035    0.0000 C   0  0  0  0  0  0  0  0  0  0  0  0
   -0.1673    2.4767    0.0000 C   0  0  0  0  0  0  0  0  0  0  0  0
   -1.5825    2.3930    0.0000 C   0  0  2  0  0  0  0  0  0  0  0  0
   -2.2708    1.9492    0.0000 C   0  0  1  0  0  0  0  0  0  0  0  0
   -1.6340    3.2164    0.0000 C   0  0  0  0  0  0  0  0  0  0  0  0
   -2.2322    1.1386    0.0000 C   0  0  0  0  0  0  0  0  0  0  0  0
   -3.0106    2.3223    0.0000 C   0  0  0  0  0  0  0  0  0  0  0  0
   -2.3737    3.5895    0.0000 C   0  0  0  0  0  0  0  0  0  0  0  0
   -2.9205    0.6947    0.0000 N   0  0  0  0  0  0  0  0  0  0  0  0
   -2.8819   -0.1158    0.0000 C   0  0  0  0  0  0  0  0  0  0  0  0
   -3.6603    1.0678    0.0000 C   0  0  0  0  0  0  0  0  0  0  0  0
  1  2  1  0  0  0  0
  2  3  2  0  0  0  0
  2  4  1  0  0  0  0
  3  5  1  0  0  0  0
  4  6  2  0  0  0  0
  5  7  2  0  0  0  0
  5  8  1  0  0  0  0
  8  9  1  0  0  0  0
  8 10  1  6  0  0  0
  9 11  1  0  0  0  0
  9 12  1  1  0  0  0
 10 13  1  0  0  0  0
 11 14  1  0  0  0  0
 14 15  1  0  0  0  0
 14 16  1  0  0  0  0
  6  7  1  0  0  0  0
M  END

>  <name>
Tapentadol

>  <ROTATABLE_BONDCOUNT>
5

>  <HBDScore>
0.8333333333333334

>  <dipole>
2.79

>  <logD>
1.07

>  <MPOScore>
4.206833333333333

>  <logDScore>
1.0

>  <MW>
221.344

>  <charge_dist(7.4)>
0.99

>  <CNS>
TRUE

>  <ArRings>
1

>  <HBD>
1

>  <BALABAN_INDEX>
2.51

>  <bpKa>
9.6

>  <TPSAScore>
0.17349999999999996

>  <MWScore>
1.0

>  <bpKaScore>
0.20000000000000018

>  <logPScore>
1.0

>  <MPO_area>
53.47

>  <TPSA>
23.47

>  <logP>
2.96

$$$$

  Mrv1722703221715202D          

 18 20  0  0  0  0            999 V2000
    0.0000    0.0000    0.0000 O   0  0  0  0  0  0  0  0  0  0  0  0
    0.5990    0.5672    0.0000 C   0  0  0  0  0  0  0  0  0  0  0  0
    1.3829    0.3314    0.0000 N   0  0  0  0  0  0  0  0  0  0  0  0
    0.4079    1.3766    0.0000 C   0  0  0  0  0  0  0  0  0  0  0  0
    1.5614   -0.4652    0.0000 C   0  0  0  0  0  0  0  0  0  0  0  0
   -0.3887    1.6251    0.0000 C   0  0  0  0  0  0  0  0  0  0  0  0
    2.3453   -0.7010    0.0000 C   0  0  2  0  0  0  0  0  0  0  0  0
    3.1419   -0.5098    0.0000 C   0  0  2  0  0  0  0  0  0  0  0  0
    2.8997   -1.3001    0.0000 C   0  0  0  0  0  0  0  0  0  0  0  0
    3.7410    0.0574    0.0000 C   0  0  0  0  0  0  0  0  0  0  0  0
    3.5498    0.8667    0.0000 C   0  0  0  0  0  0  0  0  0  0  0  0
    4.5248   -0.1784    0.0000 C   0  0  0  0  0  0  0  0  0  0  0  0
    4.1488    1.4339    0.0000 C   0  0  0  0  0  0  0  0  0  0  0  0
    2.8233    1.2746    0.0000 C   0  0  0  0  0  0  0  0  0  0  0  0
    5.1239    0.3887    0.0000 C   0  0  0  0  0  0  0  0  0  0  0  0
    3.7983    2.1859    0.0000 O   0  0  0  0  0  0  0  0  0  0  0  0
    4.9327    1.1981    0.0000 C   0  0  0  0  0  0  0  0  0  0  0  0
    2.9762    2.0903    0.0000 C   0  0  0  0  0  0  0  0  0  0  0  0
  1  2  2  0  0  0  0
  2  3  1  0  0  0  0
  2  4  1  0  0  0  0
  3  5  1  0  0  0  0
  4  6  1  0  0  0  0
  7  5  1  6  0  0  0
  7  8  1  0  0  0  0
  7  9  1  0  0  0  0
  8 10  1  1  0  0  0
 10 11  2  0  0  0  0
 10 12  1  0  0  0  0
 11 13  1  0  0  0  0
 11 14  1  0  0  0  0
 12 15  2  0  0  0  0
 13 16  1  0  0  0  0
 13 17  2  0  0  0  0
 14 18  1  0  0  0  0
  8  9  1  0  0  0  0
 15 17  1  0  0  0  0
 16 18  1  0  0  0  0
M  END

>  <name>
Tasimelteon

>  <ROTATABLE_BONDCOUNT>
4

>  <HBDScore>
0.8333333333333334

>  <dipole>
4.15

>  <logD>
1.98

>  <MPOScore>
5.749833333333333

>  <logDScore>
1.0

>  <MW>
245.322

>  <charge_dist(7.4)>
-0.00

>  <CNS>
TRUE

>  <ArRings>
1

>  <HBD>
1

>  <BALABAN_INDEX>
1.48

>  <bpKa>
-1.2

>  <TPSAScore>
0.9165

>  <MWScore>
1.0

>  <bpKaScore>
1.0

>  <logPScore>
1.0

>  <MPO_area>
91.89

>  <TPSA>
38.33

>  <logP>
1.98

$$$$

  Mrv1722703221715202D          

 39 44  0  0  0  0            999 V2000
    0.0000    0.0000    0.0000 O   0  0  0  0  0  0  0  0  0  0  0  0
   -0.8306   -0.0195    0.0000 C   0  0  0  0  0  0  0  0  0  0  0  0
   -1.2264   -0.7398    0.0000 O   0  0  0  0  0  0  0  0  0  0  0  0
   -1.2718    0.6878    0.0000 C   0  0  0  0  0  0  0  0  0  0  0  0
   -0.8890    1.4211    0.0000 C   0  0  0  0  0  0  0  0  0  0  0  0
   -2.1024    0.6683    0.0000 C   0  0  0  0  0  0  0  0  0  0  0  0
   -0.0714    1.4535    0.0000 C   0  0  0  0  0  0  0  0  0  0  0  0
   -1.3302    2.1284    0.0000 C   0  0  0  0  0  0  0  0  0  0  0  0
   -2.5437    1.3757    0.0000 C   0  0  0  0  0  0  0  0  0  0  0  0
    0.3569    0.7592    0.0000 C   0  0  0  0  0  0  0  0  0  0  0  0
    0.3115    2.1868    0.0000 C   0  0  0  0  0  0  0  0  0  0  0  0
   -2.1608    2.1089    0.0000 C   0  0  0  0  0  0  0  0  0  0  0  0
    1.1745    0.7917    0.0000 C   0  0  0  0  0  0  0  0  0  0  0  0
    1.1291    2.2192    0.0000 C   0  0  0  0  0  0  0  0  0  0  0  0
    1.5573    1.5249    0.0000 C   0  0  0  0  0  0  0  0  0  0  0  0
    2.3750    1.5573    0.0000 C   0  0  0  0  0  0  0  0  0  0  0  0
    2.7578    2.2906    0.0000 N   0  0  0  0  0  0  0  0  0  0  0  0
    3.5689    2.4139    0.0000 C   0  0  0  0  0  0  0  0  0  0  0  0
    2.3879    3.0368    0.0000 C   0  0  0  0  0  0  0  0  0  0  0  0
    3.7052    3.2315    0.0000 C   0  0  0  0  0  0  0  0  0  0  0  0
    4.1919    1.8883    0.0000 C   0  0  0  0  0  0  0  0  0  0  0  0
    2.9784    3.6144    0.0000 N   0  0  0  0  0  0  0  0  0  0  0  0
    1.5703    3.1861    0.0000 C   0  0  0  0  0  0  0  0  0  0  0  0
    4.4709    3.5170    0.0000 C   0  0  0  0  0  0  0  0  0  0  0  0
    4.9576    2.1738    0.0000 C   0  0  0  0  0  0  0  0  0  0  0  0
    1.2848    3.9647    0.0000 C   0  0  0  0  0  0  0  0  0  0  0  0
    5.0938    2.9914    0.0000 C   0  0  0  0  0  0  0  0  0  0  0  0
    4.6071    4.3346    0.0000 C   0  0  0  0  0  0  0  0  0  0  0  0
    5.5805    1.6482    0.0000 C   0  0  0  0  0  0  0  0  0  0  0  0
    0.4672    4.1140    0.0000 C   0  0  0  0  0  0  0  0  0  0  0  0
    5.5156    0.8306    0.0000 N   0  0  0  0  0  0  0  0  0  0  0  0
    6.3722    1.8559    0.0000 N   0  0  0  0  0  0  0  0  0  0  0  0
    6.2748    0.5256    0.0000 C   0  0  0  0  0  0  0  0  0  0  0  0
    6.8004    1.1615    0.0000 C   0  0  0  0  0  0  0  0  0  0  0  0
    6.6772    2.6281    0.0000 C   0  0  0  0  0  0  0  0  0  0  0  0
    6.5474   -0.2401    0.0000 C   0  0  0  0  0  0  0  0  0  0  0  0
    7.6051    1.0253    0.0000 C   0  0  0  0  0  0  0  0  0  0  0  0
    7.3520   -0.3764    0.0000 C   0  0  0  0  0  0  0  0  0  0  0  0
    7.8776    0.2596    0.0000 C   0  0  0  0  0  0  0  0  0  0  0  0
  1  2  2  0  0  0  0
  2  3  1  0  0  0  0
  2  4  1  0  0  0  0
  4  5  2  0  0  0  0
  4  6  1  0  0  0  0
  5  7  1  0  0  0  0
  5  8  1  0  0  0  0
  6  9  2  0  0  0  0
  7 10  2  0  0  0  0
  7 11  1  0  0  0  0
  8 12  2  0  0  0  0
 10 13  1  0  0  0  0
 11 14  2  0  0  0  0
 13 15  2  0  0  0  0
 15 16  1  0  0  0  0
 16 17  1  0  0  0  0
 17 18  1  0  0  0  0
 17 19  1  0  0  0  0
 18 20  2  0  0  0  0
 18 21  1  0  0  0  0
 19 22  2  0  0  0  0
 19 23  1  0  0  0  0
 20 24  1  0  0  0  0
 21 25  2  0  0  0  0
 23 26  1  0  0  0  0
 24 27  2  0  0  0  0
 24 28  1  0  0  0  0
 25 29  1  0  0  0  0
 26 30  1  0  0  0  0
 29 31  2  0  0  0  0
 29 32  1  0  0  0  0
 31 33  1  0  0  0  0
 32 34  1  0  0  0  0
 32 35  1  0  0  0  0
 33 36  2  0  0  0  0
 34 37  2  0  0  0  0
 36 38  1  0  0  0  0
 37 39  1  0  0  0  0
  9 12  1  0  0  0  0
 14 15  1  0  0  0  0
 20 22  1  0  0  0  0
 25 27  1  0  0  0  0
 33 34  1  0  0  0  0
 38 39  2  0  0  0  0
M  END

>  <name>
Telmisartan

>  <ROTATABLE_BONDCOUNT>
7

>  <HBDScore>
0.8333333333333334

>  <dipole>
4.69

>  <logD>
4.86

>  <MPOScore>
2.8333333333333335

>  <logDScore>
0.0

>  <MW>
514.629

>  <charge_dist(7.4)>
-0.97

>  <CNS>
TRUE

>  <ArRings>
6

>  <HBD>
1

>  <BALABAN_INDEX>
1.05

>  <bpKa>
5.86

>  <TPSAScore>
1.0

>  <MWScore>
0.0

>  <bpKaScore>
1.0

>  <logPScore>
0.0

>  <MPO_area>
30.56

>  <TPSA>
72.94

>  <logP>
6.13

$$$$

  Mrv1722703221715202D          

 14 15  0  0  0  0            999 V2000
    0.0000    0.0000    0.0000 O   0  0  0  0  0  0  0  0  0  0  0  0
    0.5291   -0.6271    0.0000 C   0  0  0  0  0  0  0  0  0  0  0  0
    0.2417   -1.4043    0.0000 N   0  0  0  0  0  0  0  0  0  0  0  0
    1.3390   -0.4703    0.0000 N   0  0  0  0  0  0  0  0  0  0  0  0
    0.7708   -2.0314    0.0000 N   0  0  0  0  0  0  0  0  0  0  0  0
   -0.5813   -1.5480    0.0000 C   0  0  0  0  0  0  0  0  0  0  0  0
    1.8681   -1.0973    0.0000 C   0  0  0  0  0  0  0  0  0  0  0  0
    1.7701    0.2417    0.0000 C   0  0  0  0  0  0  0  0  0  0  0  0
    1.5807   -1.8746    0.0000 N   0  0  0  0  0  0  0  0  0  0  0  0
    2.6323   -0.7773    0.0000 C   0  0  0  0  0  0  0  0  0  0  0  0
    2.5670    0.0523    0.0000 N   0  0  0  0  0  0  0  0  0  0  0  0
    3.3312   -1.2084    0.0000 C   0  0  0  0  0  0  0  0  0  0  0  0
    3.2985   -2.0314    0.0000 O   0  0  0  0  0  0  0  0  0  0  0  0
    4.0562   -0.8099    0.0000 N   0  0  0  0  0  0  0  0  0  0  0  0
  1  2  2  0  0  0  0
  2  3  1  0  0  0  0
  2  4  1  0  0  0  0
  3  5  1  0  0  0  0
  3  6  1  0  0  0  0
  4  7  1  0  0  0  0
  4  8  1  0  0  0  0
  5  9  2  0  0  0  0
  7 10  2  0  0  0  0
  8 11  2  0  0  0  0
 10 12  1  0  0  0  0
 12 13  2  0  0  0  0
 12 14  1  0  0  0  0
  7  9  1  0  0  0  0
 10 11  1  0  0  0  0
M  END

>  <name>
Temozolomide

>  <ROTATABLE_BONDCOUNT>
1

>  <HBDScore>
0.8333333333333334

>  <dipole>
5.21

>  <logD>
-0.28

>  <MPOScore>
5.302

>  <logDScore>
1.0

>  <MW>
194.154

>  <charge_dist(7.4)>
-0.00

>  <CNS>
TRUE

>  <ArRings>
2

>  <HBD>
1

>  <BALABAN_INDEX>
2.07

>  <bpKa>
-3.62

>  <TPSAScore>
0.4686666666666668

>  <MWScore>
1.0

>  <bpKaScore>
1.0

>  <logPScore>
1.0

>  <MPO_area>
78.21

>  <TPSA>
105.94

>  <logP>
-0.28

$$$$

  Mrv1722703221715202D          

 22 23  0  0  0  0            999 V2000
    0.0000    0.0000    0.0000 N   0  0  0  0  0  0  0  0  0  0  0  0
    0.8181   -0.0584    0.0000 C   0  0  0  0  0  0  0  0  0  0  0  0
   -0.4740   -0.6752    0.0000 C   0  0  0  0  0  0  0  0  0  0  0  0
   -0.3636    0.7531    0.0000 C   0  0  0  0  0  0  0  0  0  0  0  0
    1.1687   -0.7986    0.0000 C   0  0  0  0  0  0  0  0  0  0  0  0
   -1.3051   -0.6038    0.0000 C   0  0  0  0  0  0  0  0  0  0  0  0
    1.9868   -0.8570    0.0000 C   0  0  0  0  0  0  0  0  0  0  0  0
    0.6947   -1.4739    0.0000 C   0  0  0  0  0  0  0  0  0  0  0  0
   -1.7791   -1.2791    0.0000 C   0  0  0  0  0  0  0  0  0  0  0  0
    2.3374   -1.5973    0.0000 C   0  0  0  0  0  0  0  0  0  0  0  0
    2.4478   -0.1688    0.0000 C   0  0  0  0  0  0  0  0  0  0  0  0
    1.0453   -2.2141    0.0000 C   0  0  0  0  0  0  0  0  0  0  0  0
   -2.6101   -1.2077    0.0000 C   0  0  0  0  0  0  0  0  0  0  0  0
    1.8635   -2.2725    0.0000 C   0  0  0  0  0  0  0  0  0  0  0  0
    3.1555   -1.6557    0.0000 C   0  0  0  0  0  0  0  0  0  0  0  0
    3.2659   -0.2272    0.0000 C   0  0  0  0  0  0  0  0  0  0  0  0
   -3.4412   -1.1362    0.0000 C   0  0  0  0  0  0  0  0  0  0  0  0
    3.6165   -0.9674    0.0000 C   0  0  0  0  0  0  0  0  0  0  0  0
   -4.2723   -1.0648    0.0000 C   0  0  0  0  0  0  0  0  0  0  0  0
   -4.3437   -1.8830    0.0000 C   0  0  0  0  0  0  0  0  0  0  0  0
   -4.2139   -0.2337    0.0000 C   0  0  0  0  0  0  0  0  0  0  0  0
   -5.1034   -0.9934    0.0000 C   0  0  0  0  0  0  0  0  0  0  0  0
  1  2  1  0  0  0  0
  1  3  1  0  0  0  0
  1  4  1  0  0  0  0
  2  5  1  0  0  0  0
  3  6  1  0  0  0  0
  5  7  1  0  0  0  0
  5  8  2  0  0  0  0
  6  9  2  0  0  0  0
  7 10  2  0  0  0  0
  7 11  1  0  0  0  0
  8 12  1  0  0  0  0
  9 13  1  0  0  0  0
 10 14  1  0  0  0  0
 10 15  1  0  0  0  0
 11 16  2  0  0  0  0
 13 17  3  0  0  0  0
 15 18  2  0  0  0  0
 17 19  1  0  0  0  0
 19 20  1  0  0  0  0
 19 21  1  0  0  0  0
 19 22  1  0  0  0  0
 12 14  2  0  0  0  0
 16 18  1  0  0  0  0
M  END

>  <name>
Terbinafine

>  <ROTATABLE_BONDCOUNT>
6

>  <HBDScore>
1.0

>  <dipole>
0.92

>  <logD>
4.06

>  <MPOScore>
2.5700000000000003

>  <logDScore>
0.0

>  <MW>
291.438

>  <charge_dist(7.4)>
0.97

>  <CNS>
TRUE

>  <ArRings>
2

>  <HBD>
0

>  <BALABAN_INDEX>
1.48

>  <bpKa>
8.86

>  <TPSAScore>
0.0

>  <MWScore>
1.0

>  <bpKaScore>
0.5700000000000003

>  <logPScore>
0.0

>  <MPO_area>
26.17

>  <TPSA>
3.24

>  <logP>
5.53

$$$$

  Mrv1722703221715202D          

 25 28  0  0  0  0            999 V2000
    0.0000    0.0000    0.0000 O   0  0  0  0  0  0  0  0  0  0  0  0
    0.5017    0.6560    0.0000 C   0  0  0  0  0  0  0  0  0  0  0  0
    1.3120    0.5467    0.0000 N   0  0  0  0  0  0  0  0  0  0  0  0
    0.1865    1.4278    0.0000 N   0  0  0  0  0  0  0  0  0  0  0  0
    1.6143   -0.2123    0.0000 C   0  0  0  0  0  0  0  0  0  0  0  0
    1.8137    1.2027    0.0000 C   0  0  0  0  0  0  0  0  0  0  0  0
   -0.6367    1.5500    0.0000 C   0  0  1  0  0  0  0  0  0  0  0  0
    2.4247   -0.3216    0.0000 C   0  0  0  0  0  0  0  0  0  0  0  0
    2.6240    1.0933    0.0000 C   0  0  0  0  0  0  0  0  0  0  0  0
   -0.9519    2.3218    0.0000 C   0  0  0  0  0  0  0  0  0  0  0  0
   -1.1512    0.9068    0.0000 C   0  0  0  0  0  0  0  0  0  0  0  0
   -1.7751    2.4439    0.0000 N   0  0  0  0  0  0  0  0  0  0  0  0
   -1.9745    1.0290    0.0000 C   0  0  2  0  0  0  0  0  0  0  0  0
   -2.2896    1.8008    0.0000 C   0  0  2  0  0  0  0  0  0  0  0  0
   -2.0902    3.2157    0.0000 C   0  0  0  0  0  0  0  0  0  0  0  0
   -2.4890    0.3859    0.0000 C   0  0  0  0  0  0  0  0  0  0  0  0
   -3.1128    1.9230    0.0000 C   0  0  0  0  0  0  0  0  0  0  0  0
   -3.3122    0.5081    0.0000 C   0  0  0  0  0  0  0  0  0  0  0  0
   -2.1867   -0.3730    0.0000 C   0  0  0  0  0  0  0  0  0  0  0  0
   -3.6273    1.2799    0.0000 C   0  0  0  0  0  0  0  0  0  0  0  0
   -3.8267   -0.1350    0.0000 C   0  0  0  0  0  0  0  0  0  0  0  0
   -2.7012   -1.0162    0.0000 C   0  0  0  0  0  0  0  0  0  0  0  0
   -4.4441    1.1448    0.0000 C   0  0  0  0  0  0  0  0  0  0  0  0
   -4.5599    0.3280    0.0000 N   0  0  0  0  0  0  0  0  0  0  0  0
   -3.5244   -0.8940    0.0000 C   0  0  0  0  0  0  0  0  0  0  0  0
  1  2  2  0  0  0  0
  2  3  1  0  0  0  0
  2  4  1  0  0  0  0
  3  5  1  0  0  0  0
  3  6  1  0  0  0  0
  7  4  1  6  0  0  0
  5  8  1  0  0  0  0
  6  9  1  0  0  0  0
  7 10  1  0  0  0  0
  7 11  1  0  0  0  0
 10 12  1  0  0  0  0
 13 11  1  1  0  0  0
 14 12  1  6  0  0  0
 12 15  1  0  0  0  0
 13 16  1  0  0  0  0
 14 17  1  0  0  0  0
 16 18  2  0  0  0  0
 16 19  1  0  0  0  0
 17 20  1  0  0  0  0
 18 21  1  0  0  0  0
 19 22  2  0  0  0  0
 20 23  2  0  0  0  0
 21 24  1  0  0  0  0
 21 25  2  0  0  0  0
 13 14  1  0  0  0  0
 18 20  1  0  0  0  0
 22 25  1  0  0  0  0
 23 24  1  0  0  0  0
M  END

>  <name>
Terguride

>  <ROTATABLE_BONDCOUNT>
3

>  <HBDScore>
0.5

>  <dipole>
4.53

>  <logD>
1.84

>  <MPOScore>
5.5

>  <logDScore>
1.0

>  <MW>
340.471

>  <charge_dist(7.4)>
0.56

>  <CNS>
TRUE

>  <ArRings>
2

>  <HBD>
2

>  <BALABAN_INDEX>
1.31

>  <bpKa>
7.51

>  <TPSAScore>
1.0

>  <MWScore>
1.0

>  <bpKaScore>
1.0

>  <logPScore>
1.0

>  <MPO_area>
83.33

>  <TPSA>
51.37

>  <logP>
2.20

$$$$

  Mrv1722703221715202D          

 19 19  0  0  0  0            999 V2000
    0.0000    0.0000    0.0000 F   0  0  0  0  0  0  0  0  0  0  0  0
   -0.8109   -0.1520    0.0000 C   0  0  0  0  0  0  0  0  0  0  0  0
   -0.6589   -0.9503    0.0000 F   0  0  0  0  0  0  0  0  0  0  0  0
   -0.9756    0.6589    0.0000 F   0  0  0  0  0  0  0  0  0  0  0  0
   -1.6217   -0.3041    0.0000 C   0  0  0  0  0  0  0  0  0  0  0  0
   -2.1665    0.3231    0.0000 C   0  0  0  0  0  0  0  0  0  0  0  0
   -1.8942   -1.0706    0.0000 C   0  0  0  0  0  0  0  0  0  0  0  0
   -2.9774    0.1710    0.0000 C   0  0  0  0  0  0  0  0  0  0  0  0
   -2.7050   -1.2226    0.0000 C   0  0  0  0  0  0  0  0  0  0  0  0
   -3.2498   -0.5955    0.0000 C   0  0  0  0  0  0  0  0  0  0  0  0
   -4.0607   -0.7475    0.0000 N   0  0  0  0  0  0  0  0  0  0  0  0
   -4.6055   -0.1204    0.0000 C   0  0  0  0  0  0  0  0  0  0  0  0
   -4.3458    0.6589    0.0000 O   0  0  0  0  0  0  0  0  0  0  0  0
   -5.4164   -0.2724    0.0000 C   0  0  0  0  0  0  0  0  0  0  0  0
   -5.6888   -1.0389    0.0000 C   0  0  0  0  0  0  0  0  0  0  0  0
   -5.9612    0.3548    0.0000 C   0  0  0  0  0  0  0  0  0  0  0  0
   -5.9612   -1.8054    0.0000 N   0  0  0  0  0  0  0  0  0  0  0  0
   -5.7014    1.1340    0.0000 O   0  0  0  0  0  0  0  0  0  0  0  0
   -6.7721    0.2027    0.0000 C   0  0  0  0  0  0  0  0  0  0  0  0
  1  2  1  0  0  0  0
  2  3  1  0  0  0  0
  2  4  1  0  0  0  0
  2  5  1  0  0  0  0
  5  6  2  0  0  0  0
  5  7  1  0  0  0  0
  6  8  1  0  0  0  0
  7  9  2  0  0  0  0
  8 10  2  0  0  0  0
 10 11  1  0  0  0  0
 11 12  1  0  0  0  0
 12 13  2  0  0  0  0
 12 14  1  0  0  0  0
 14 15  1  0  0  0  0
 14 16  2  0  0  0  0
 15 17  3  0  0  0  0
 16 18  1  0  0  0  0
 16 19  1  0  0  0  0
  9 10  1  0  0  0  0
M  END

>  <name>
Teriflunomide

>  <ROTATABLE_BONDCOUNT>
3

>  <HBDScore>
0.5

>  <dipole>
6.86

>  <logD>
0.23

>  <MPOScore>
5.5

>  <logDScore>
1.0

>  <MW>
270.211

>  <charge_dist(7.4)>
-0.99

>  <CNS>
TRUE

>  <ArRings>
1

>  <HBD>
2

>  <BALABAN_INDEX>
2.28

>  <bpKa>
-3.21

>  <TPSAScore>
1.0

>  <MWScore>
1.0

>  <bpKaScore>
1.0

>  <logPScore>
1.0

>  <MPO_area>
83.33

>  <TPSA>
73.12

>  <logP>
2.14

$$$$

  Mrv1722703221715202D          

 23 25  0  0  0  0            999 V2000
    0.0000    0.0000    0.0000 O   0  0  0  0  0  0  0  0  0  0  0  0
    0.2609    0.7827    0.0000 C   0  0  0  0  0  0  0  0  0  0  0  0
   -0.2864    1.4126    0.0000 C   0  0  0  0  0  0  0  0  0  0  0  0
    1.0627    0.9481    0.0000 C   0  0  0  0  0  0  0  0  0  0  0  0
   -0.0255    2.1952    0.0000 C   0  0  0  0  0  0  0  0  0  0  0  0
   -1.1008    1.2599    0.0000 C   0  0  0  0  0  0  0  0  0  0  0  0
    1.3235    1.7308    0.0000 C   0  0  0  0  0  0  0  0  0  0  0  0
    0.7763    2.3607    0.0000 N   0  0  0  0  0  0  0  0  0  0  0  0
   -1.6480    1.8898    0.0000 C   0  0  0  0  0  0  0  0  0  0  0  0
    2.1253    1.8962    0.0000 C   0  0  0  0  0  0  0  0  0  0  0  0
    1.0372    3.1433    0.0000 C   0  0  0  0  0  0  0  0  0  0  0  0
   -2.4625    1.7371    0.0000 C   0  0  0  0  0  0  0  0  0  0  0  0
   -1.3872    2.6725    0.0000 C   0  0  0  0  0  0  0  0  0  0  0  0
    2.3861    2.6789    0.0000 C   0  0  0  0  0  0  0  0  0  0  0  0
    2.6598    1.2790    0.0000 C   0  0  0  0  0  0  0  0  0  0  0  0
    1.8389    3.3088    0.0000 C   0  0  0  0  0  0  0  0  0  0  0  0
    3.1879    2.8443    0.0000 C   0  0  0  0  0  0  0  0  0  0  0  0
    3.4615    1.4444    0.0000 C   0  0  0  0  0  0  0  0  0  0  0  0
    3.7224    2.2271    0.0000 C   0  0  0  0  0  0  0  0  0  0  0  0
    3.9960    0.8272    0.0000 O   0  0  0  0  0  0  0  0  0  0  0  0
    4.5241    2.3925    0.0000 O   0  0  0  0  0  0  0  0  0  0  0  0
    3.7224    0.0572    0.0000 C   0  0  0  0  0  0  0  0  0  0  0  0
    5.0586    1.7753    0.0000 C   0  0  0  0  0  0  0  0  0  0  0  0
  1  2  2  0  0  0  0
  2  3  1  0  0  0  0
  2  4  1  0  0  0  0
  3  5  1  0  0  0  0
  3  6  1  0  0  0  0
  4  7  1  0  0  0  0
  5  8  1  0  0  0  0
  6  9  1  0  0  0  0
  7 10  1  0  0  0  0
  8 11  1  0  0  0  0
  9 12  1  0  0  0  0
  9 13  1  0  0  0  0
 10 14  2  0  0  0  0
 10 15  1  0  0  0  0
 11 16  1  0  0  0  0
 14 17  1  0  0  0  0
 15 18  2  0  0  0  0
 17 19  2  0  0  0  0
 18 20  1  0  0  0  0
 19 21  1  0  0  0  0
 20 22  1  0  0  0  0
 21 23  1  0  0  0  0
  7  8  1  0  0  0  0
 14 16  1  0  0  0  0
 18 19  1  0  0  0  0
M  END

>  <name>
Tetrabenazine

>  <ROTATABLE_BONDCOUNT>
4

>  <HBDScore>
1.0

>  <dipole>
2.76

>  <logD>
3.14

>  <MPOScore>
5.168500000000001

>  <logDScore>
0.42999999999999994

>  <MW>
317.429

>  <charge_dist(7.4)>
0.46

>  <CNS>
TRUE

>  <ArRings>
1

>  <HBD>
0

>  <BALABAN_INDEX>
1.62

>  <bpKa>
7.33

>  <TPSAScore>
0.9385000000000002

>  <MWScore>
1.0

>  <bpKaScore>
1.0

>  <logPScore>
0.8

>  <MPO_area>
74.39

>  <TPSA>
38.77

>  <logP>
3.40

$$$$

  Mrv1722703221715202D          

 16 16  0  0  0  0            999 V2000
    0.0000    0.0000    0.0000 S   0  0  0  0  0  0  0  0  0  0  0  0
    0.8112    0.1374    0.0000 C   0  0  0  0  0  0  0  0  0  0  0  0
    1.0989    0.9224    0.0000 N   0  0  0  0  0  0  0  0  0  0  0  0
    1.3279   -0.5037    0.0000 N   0  0  0  0  0  0  0  0  0  0  0  0
    1.9101    1.0597    0.0000 C   0  0  0  0  0  0  0  0  0  0  0  0
    2.1390   -0.3663    0.0000 C   0  0  0  0  0  0  0  0  0  0  0  0
    2.1979    1.8447    0.0000 O   0  0  0  0  0  0  0  0  0  0  0  0
    2.4269    0.4252    0.0000 C   0  0  0  0  0  0  0  0  0  0  0  0
    2.6558   -1.0009    0.0000 O   0  0  0  0  0  0  0  0  0  0  0  0
    3.1333    0.0066    0.0000 C   0  0  0  0  0  0  0  0  0  0  0  0
    2.9633    1.0597    0.0000 C   0  0  0  0  0  0  0  0  0  0  0  0
    3.8529    0.4186    0.0000 C   0  0  0  0  0  0  0  0  0  0  0  0
    3.1137   -0.8177    0.0000 C   0  0  0  0  0  0  0  0  0  0  0  0
    3.7744    0.9092    0.0000 C   0  0  0  0  0  0  0  0  0  0  0  0
    4.5594    0.0000    0.0000 C   0  0  0  0  0  0  0  0  0  0  0  0
    5.2789    0.4121    0.0000 C   0  0  0  0  0  0  0  0  0  0  0  0
  1  2  2  0  0  0  0
  2  3  1  0  0  0  0
  2  4  1  0  0  0  0
  3  5  2  0  0  0  0
  4  6  1  0  0  0  0
  5  7  1  0  0  0  0
  5  8  1  0  0  0  0
  6  9  2  0  0  0  0
  8 10  1  0  0  0  0
  8 11  1  0  0  0  0
 10 12  1  0  0  0  0
 10 13  1  0  0  0  0
 11 14  1  0  0  0  0
 12 15  1  0  0  0  0
 15 16  1  0  0  0  0
  6  8  1  0  0  0  0
M  END

>  <name>
Thiopental

>  <ROTATABLE_BONDCOUNT>
4

>  <HBDScore>
0.5

>  <dipole>
4.27

>  <logD>
-0.16

>  <MPOScore>
5.425

>  <logDScore>
1.0

>  <MW>
242.34

>  <charge_dist(7.4)>
-1.05

>  <CNS>
TRUE

>  <ArRings>
0

>  <HBD>
2

>  <BALABAN_INDEX>
2.90

>  <bpKa>
-3.15

>  <TPSAScore>
1.0

>  <MWScore>
1.0

>  <bpKaScore>
1.0

>  <logPScore>
0.925

>  <MPO_area>
81.46

>  <TPSA>
61.69

>  <logP>
3.15

$$$$

  Mrv1722703221715202D          

 30 33  0  0  0  0            999 V2000
    0.0000    0.0000    0.0000 S   0  0  0  0  0  0  0  0  0  0  0  0
   -0.1654    0.8145    0.0000 O   0  0  0  0  0  0  0  0  0  0  0  0
    0.1527   -0.8017    0.0000 O   0  0  0  0  0  0  0  0  0  0  0  0
   -0.8145   -0.1527    0.0000 N   0  0  0  0  0  0  0  0  0  0  0  0
    0.8017    0.1654    0.0000 C   0  0  0  0  0  0  0  0  0  0  0  0
   -1.0881   -0.9227    0.0000 C   0  0  0  0  0  0  0  0  0  0  0  0
   -1.3617    0.4772    0.0000 C   0  0  0  0  0  0  0  0  0  0  0  0
    1.0626    0.9481    0.0000 C   0  0  0  0  0  0  0  0  0  0  0  0
    1.3362   -0.4518    0.0000 C   0  0  0  0  0  0  0  0  0  0  0  0
    1.8644    1.1136    0.0000 C   0  0  0  0  0  0  0  0  0  0  0  0
    2.1380   -0.2863    0.0000 C   0  0  0  0  0  0  0  0  0  0  0  0
    2.3989    0.4963    0.0000 C   0  0  0  0  0  0  0  0  0  0  0  0
    2.1253    1.8962    0.0000 C   0  0  0  0  0  0  0  0  0  0  0  0
    3.2007    0.6618    0.0000 S   0  0  0  0  0  0  0  0  0  0  0  0
    2.9271    2.0617    0.0000 C   0  0  0  0  0  0  0  0  0  0  0  0
    1.5781    2.5262    0.0000 C   0  0  0  0  0  0  0  0  0  0  0  0
    3.4616    1.4445    0.0000 C   0  0  0  0  0  0  0  0  0  0  0  0
    3.1879    2.8444    0.0000 C   0  0  0  0  0  0  0  0  0  0  0  0
    0.7636    2.3735    0.0000 C   0  0  0  0  0  0  0  0  0  0  0  0
    4.2633    1.6099    0.0000 C   0  0  0  0  0  0  0  0  0  0  0  0
    3.9897    3.0098    0.0000 C   0  0  0  0  0  0  0  0  0  0  0  0
    0.2164    3.0034    0.0000 C   0  0  0  0  0  0  0  0  0  0  0  0
    4.5242    2.3926    0.0000 C   0  0  0  0  0  0  0  0  0  0  0  0
   -0.5981    2.8507    0.0000 N   0  0  0  0  0  0  0  0  0  0  0  0
   -1.1454    3.4806    0.0000 C   0  0  0  0  0  0  0  0  0  0  0  0
   -0.8718    2.0807    0.0000 C   0  0  0  0  0  0  0  0  0  0  0  0
   -1.9598    3.3279    0.0000 C   0  0  0  0  0  0  0  0  0  0  0  0
   -1.6862    1.9280    0.0000 C   0  0  0  0  0  0  0  0  0  0  0  0
   -2.2335    2.5580    0.0000 N   0  0  0  0  0  0  0  0  0  0  0  0
   -3.0480    2.4053    0.0000 C   0  0  0  0  0  0  0  0  0  0  0  0
  1  2  2  0  0  0  0
  1  3  2  0  0  0  0
  1  4  1  0  0  0  0
  1  5  1  0  0  0  0
  4  6  1  0  0  0  0
  4  7  1  0  0  0  0
  5  8  2  0  0  0  0
  5  9  1  0  0  0  0
  8 10  1  0  0  0  0
  9 11  2  0  0  0  0
 10 12  2  0  0  0  0
 10 13  1  0  0  0  0
 12 14  1  0  0  0  0
 13 15  1  0  0  0  0
 13 16  2  0  0  0  0
 14 17  1  0  0  0  0
 15 18  2  0  0  0  0
 16 19  1  0  0  0  0
 17 20  2  0  0  0  0
 18 21  1  0  0  0  0
 19 22  1  0  0  0  0
 20 23  1  0  0  0  0
 22 24  1  0  0  0  0
 24 25  1  0  0  0  0
 24 26  1  0  0  0  0
 25 27  1  0  0  0  0
 26 28  1  0  0  0  0
 27 29  1  0  0  0  0
 29 30  1  0  0  0  0
 11 12  1  0  0  0  0
 15 17  1  0  0  0  0
 21 23  2  0  0  0  0
 28 29  1  0  0  0  0
M  END

>  <name>
Thiothixene

>  <ROTATABLE_BONDCOUNT>
4

>  <HBDScore>
1.0

>  <dipole>
11.98

>  <logD>
2.54

>  <MPOScore>
4.872714285714285

>  <logDScore>
0.73

>  <MW>
443.62

>  <charge_dist(7.4)>
0.85

>  <CNS>
TRUE

>  <ArRings>
2

>  <HBD>
0

>  <BALABAN_INDEX>
1.29

>  <bpKa>
8.16

>  <TPSAScore>
1.0

>  <MWScore>
0.4027142857142857

>  <bpKaScore>
0.9199999999999999

>  <logPScore>
0.8200000000000001

>  <MPO_area>
66.16

>  <TPSA>
43.86

>  <logP>
3.36

$$$$

  Mrv1722703221715202D          

 25 27  0  0  0  0            999 V2000
    0.0000    0.0000    0.0000 S   0  0  0  0  0  0  0  0  0  0  0  0
    0.0585    0.8327    0.0000 C   0  0  0  0  0  0  0  0  0  0  0  0
   -0.8132   -0.1887    0.0000 C   0  0  0  0  0  0  0  0  0  0  0  0
   -0.7091    1.1579    0.0000 C   0  0  0  0  0  0  0  0  0  0  0  0
    0.7546    1.2685    0.0000 C   0  0  0  0  0  0  0  0  0  0  0  0
   -1.2490    0.5204    0.0000 C   0  0  0  0  0  0  0  0  0  0  0  0
   -0.9107    1.9711    0.0000 C   0  0  0  0  0  0  0  0  0  0  0  0
    0.7286    2.1012    0.0000 C   0  0  0  0  0  0  0  0  0  0  0  0
    1.4767    0.8782    0.0000 C   0  0  0  0  0  0  0  0  0  0  0  0
    0.0391    2.5761    0.0000 S   0  0  0  0  0  0  0  0  0  0  0  0
    1.3791    2.6086    0.0000 C   0  0  0  0  0  0  0  0  0  0  0  0
    2.1727    1.3140    0.0000 C   0  0  0  0  0  0  0  0  0  0  0  0
    0.2667    3.3762    0.0000 C   0  0  0  0  0  0  0  0  0  0  0  0
    1.0994    3.3957    0.0000 C   0  0  0  0  0  0  0  0  0  0  0  0
    2.1662    2.3809    0.0000 C   0  0  0  0  0  0  0  0  0  0  0  0
    2.8948    0.9238    0.0000 C   0  0  0  0  0  0  0  0  0  0  0  0
    3.5908    1.3596    0.0000 N   0  0  0  0  0  0  0  0  0  0  0  0
    4.3129    0.9693    0.0000 C   0  0  0  0  0  0  0  0  0  0  0  0
    3.5648    2.1922    0.0000 C   0  0  0  0  0  0  0  0  0  0  0  0
    5.0090    1.4051    0.0000 C   0  0  1  0  0  0  0  0  0  0  0  0
    4.2609    2.6281    0.0000 C   0  0  0  0  0  0  0  0  0  0  0  0
    5.7310    1.0148    0.0000 C   0  0  0  0  0  0  0  0  0  0  0  0
    4.9830    2.2378    0.0000 C   0  0  0  0  0  0  0  0  0  0  0  0
    6.4271    1.4507    0.0000 O   0  0  0  0  0  0  0  0  0  0  0  0
    5.7441    0.1952    0.0000 O   0  0  0  0  0  0  0  0  0  0  0  0
  1  2  1  0  0  0  0
  1  3  1  0  0  0  0
  2  4  2  0  0  0  0
  2  5  1  0  0  0  0
  3  6  2  0  0  0  0
  4  7  1  0  0  0  0
  5  8  1  0  0  0  0
  5  9  2  0  0  0  0
  8 10  1  0  0  0  0
  8 11  2  0  0  0  0
  9 12  1  0  0  0  0
 10 13  1  0  0  0  0
 11 14  1  0  0  0  0
 11 15  1  0  0  0  0
 12 16  1  0  0  0  0
 16 17  1  0  0  0  0
 17 18  1  0  0  0  0
 17 19  1  0  0  0  0
 18 20  1  0  0  0  0
 19 21  1  0  0  0  0
 20 22  1  6  0  0  0
 20 23  1  0  0  0  0
 22 24  2  0  0  0  0
 22 25  1  0  0  0  0
  4  6  1  0  0  0  0
 13 14  2  0  0  0  0
 21 23  1  0  0  0  0
M  END

>  <name>
Tiagabine

>  <ROTATABLE_BONDCOUNT>
6

>  <HBDScore>
0.8333333333333334

>  <dipole>
2.93

>  <logD>
2.60

>  <MPOScore>
4.792261904761904

>  <logDScore>
0.7

>  <MW>
375.55

>  <charge_dist(7.4)>
-0.01

>  <CNS>
TRUE

>  <ArRings>
2

>  <HBD>
1

>  <BALABAN_INDEX>
1.35

>  <bpKa>
9.26

>  <TPSAScore>
1.0

>  <MWScore>
0.8889285714285713

>  <bpKaScore>
0.3700000000000001

>  <logPScore>
1.0

>  <MPO_area>
64.03

>  <TPSA>
40.54

>  <logP>
2.60

$$$$

  Mrv1722703221715202D          

 29 31  0  0  0  0            999 V2000
    0.0000    0.0000    0.0000 Cl  0  0  0  0  0  0  0  0  0  0  0  0
    0.6015   -0.5558    0.0000 C   0  0  0  0  0  0  0  0  0  0  0  0
    0.4119   -1.3600    0.0000 C   0  0  0  0  0  0  0  0  0  0  0  0
    1.3862   -0.3008    0.0000 C   0  0  0  0  0  0  0  0  0  0  0  0
    1.0135   -1.9158    0.0000 C   0  0  0  0  0  0  0  0  0  0  0  0
    1.9877   -0.8565    0.0000 C   0  0  0  0  0  0  0  0  0  0  0  0
    0.7061   -2.6808    0.0000 S   0  0  0  0  0  0  0  0  0  0  0  0
    1.7981   -1.6608    0.0000 C   0  0  0  0  0  0  0  0  0  0  0  0
    0.0915   -3.2431    0.0000 O   0  0  0  0  0  0  0  0  0  0  0  0
    0.0131   -2.2100    0.0000 O   0  0  0  0  0  0  0  0  0  0  0  0
    1.1181   -3.3935    0.0000 N   0  0  0  0  0  0  0  0  0  0  0  0
    2.4781   -2.1185    0.0000 C   0  0  1  0  0  0  0  0  0  0  0  0
    1.9354   -3.5112    0.0000 C   0  0  0  0  0  0  0  0  0  0  0  0
    0.6473   -4.0735    0.0000 C   0  0  0  0  0  0  0  0  0  0  0  0
    3.1908   -1.6935    0.0000 N   0  0  0  0  0  0  0  0  0  0  0  0
    2.5369   -2.9423    0.0000 C   0  0  0  0  0  0  0  0  0  0  0  0
    2.1185   -4.3154    0.0000 C   0  0  0  0  0  0  0  0  0  0  0  0
    3.9034   -2.0988    0.0000 C   0  0  0  0  0  0  0  0  0  0  0  0
    3.3215   -3.1777    0.0000 C   0  0  0  0  0  0  0  0  0  0  0  0
    2.9031   -4.5508    0.0000 C   0  0  0  0  0  0  0  0  0  0  0  0
    4.6162   -1.6738    0.0000 C   0  0  0  0  0  0  0  0  0  0  0  0
    3.5046   -3.9819    0.0000 C   0  0  0  0  0  0  0  0  0  0  0  0
    5.3289   -2.0793    0.0000 C   0  0  0  0  0  0  0  0  0  0  0  0
    6.0415   -1.6543    0.0000 C   0  0  0  0  0  0  0  0  0  0  0  0
    6.7542   -2.0596    0.0000 C   0  0  0  0  0  0  0  0  0  0  0  0
    7.4670   -1.6346    0.0000 C   0  0  0  0  0  0  0  0  0  0  0  0
    8.1796   -2.0400    0.0000 C   0  0  0  0  0  0  0  0  0  0  0  0
    8.1731   -2.8639    0.0000 O   0  0  0  0  0  0  0  0  0  0  0  0
    8.8923   -1.6150    0.0000 O   0  0  0  0  0  0  0  0  0  0  0  0
  1  2  1  0  0  0  0
  2  3  2  0  0  0  0
  2  4  1  0  0  0  0
  3  5  1  0  0  0  0
  4  6  2  0  0  0  0
  5  7  1  0  0  0  0
  5  8  2  0  0  0  0
  7  9  2  0  0  0  0
  7 10  2  0  0  0  0
  7 11  1  0  0  0  0
  8 12  1  0  0  0  0
 11 13  1  0  0  0  0
 11 14  1  0  0  0  0
 12 15  1  1  0  0  0
 12 16  1  0  0  0  0
 13 17  2  0  0  0  0
 15 18  1  0  0  0  0
 16 19  2  0  0  0  0
 17 20  1  0  0  0  0
 18 21  1  0  0  0  0
 19 22  1  0  0  0  0
 21 23  1  0  0  0  0
 23 24  1  0  0  0  0
 24 25  1  0  0  0  0
 25 26  1  0  0  0  0
 26 27  1  0  0  0  0
 27 28  2  0  0  0  0
 27 29  1  0  0  0  0
  6  8  1  0  0  0  0
 13 16  1  0  0  0  0
 20 22  2  0  0  0  0
M  END

>  <name>
Tianeptine

>  <ROTATABLE_BONDCOUNT>
8

>  <HBDScore>
0.5

>  <dipole>
8.04

>  <logD>
1.43

>  <MPOScore>
4.950357142857143

>  <logDScore>
1.0

>  <MW>
436.95

>  <charge_dist(7.4)>
-0.28

>  <CNS>
TRUE

>  <ArRings>
2

>  <HBD>
2

>  <BALABAN_INDEX>
1.50

>  <bpKa>
7.81

>  <TPSAScore>
1.0

>  <MWScore>
0.4503571428571429

>  <bpKaScore>
1.0

>  <logPScore>
1.0

>  <MPO_area>
69.59

>  <TPSA>
86.71

>  <logP>
1.54

$$$$

  Mrv1722703221715202D          

 21 22  0  0  0  0            999 V2000
    0.0000    0.0000    0.0000 S   0  0  0  0  0  0  0  0  0  0  0  0
   -0.7467    0.3541    0.0000 N   0  0  0  0  0  0  0  0  0  0  0  0
    0.5536    0.6051    0.0000 N   0  0  0  0  0  0  0  0  0  0  0  0
   -0.6502    1.1716    0.0000 C   0  0  0  0  0  0  0  0  0  0  0  0
    0.1480    1.3325    0.0000 C   0  0  0  0  0  0  0  0  0  0  0  0
   -1.2553    1.7380    0.0000 O   0  0  0  0  0  0  0  0  0  0  0  0
    0.4892    2.0792    0.0000 N   0  0  0  0  0  0  0  0  0  0  0  0
   -2.0470    1.5063    0.0000 C   0  0  0  0  0  0  0  0  0  0  0  0
    1.3003    2.1565    0.0000 C   0  0  0  0  0  0  0  0  0  0  0  0
    0.0129    2.7615    0.0000 C   0  0  0  0  0  0  0  0  0  0  0  0
   -2.6521    2.0728    0.0000 C   0  0  1  0  0  0  0  0  0  0  0  0
    1.6415    2.9032    0.0000 C   0  0  0  0  0  0  0  0  0  0  0  0
    0.3541    3.5083    0.0000 C   0  0  0  0  0  0  0  0  0  0  0  0
   -2.4719    2.8774    0.0000 O   0  0  0  0  0  0  0  0  0  0  0  0
   -3.4439    1.8411    0.0000 C   0  0  0  0  0  0  0  0  0  0  0  0
    1.1651    3.5855    0.0000 O   0  0  0  0  0  0  0  0  0  0  0  0
   -4.0490    2.4075    0.0000 N   0  0  0  0  0  0  0  0  0  0  0  0
   -4.8408    2.1758    0.0000 C   0  0  0  0  0  0  0  0  0  0  0  0
   -5.0854    2.9676    0.0000 C   0  0  0  0  0  0  0  0  0  0  0  0
   -4.6090    1.3969    0.0000 C   0  0  0  0  0  0  0  0  0  0  0  0
   -5.6326    1.9441    0.0000 C   0  0  0  0  0  0  0  0  0  0  0  0
  1  2  1  0  0  0  0
  1  3  1  0  0  0  0
  2  4  2  0  0  0  0
  3  5  2  0  0  0  0
  4  6  1  0  0  0  0
  5  7  1  0  0  0  0
  6  8  1  0  0  0  0
  7  9  1  0  0  0  0
  7 10  1  0  0  0  0
  8 11  1  0  0  0  0
  9 12  1  0  0  0  0
 10 13  1  0  0  0  0
 11 14  1  6  0  0  0
 11 15  1  0  0  0  0
 12 16  1  0  0  0  0
 15 17  1  0  0  0  0
 17 18  1  0  0  0  0
 18 19  1  0  0  0  0
 18 20  1  0  0  0  0
 18 21  1  0  0  0  0
  4  5  1  0  0  0  0
 13 16  1  0  0  0  0
M  END

>  <name>
Timolol

>  <ROTATABLE_BONDCOUNT>
7

>  <HBDScore>
0.5

>  <dipole>
2.21

>  <logD>
-0.97

>  <MPOScore>
4.62

>  <logDScore>
1.0

>  <MW>
316.42

>  <charge_dist(7.4)>
1.00

>  <CNS>
TRUE

>  <ArRings>
1

>  <HBD>
2

>  <BALABAN_INDEX>
1.63

>  <bpKa>
9.76

>  <TPSAScore>
1.0

>  <MWScore>
1.0

>  <bpKaScore>
0.1200000000000001

>  <logPScore>
1.0

>  <MPO_area>
61.33

>  <TPSA>
79.74

>  <logP>
1.34

$$$$

  Mrv1722703221715202D          

 16 18  0  0  0  0            999 V2000
    0.0000    0.0000    0.0000 Cl  0  0  0  0  0  0  0  0  0  0  0  0
   -0.7935    0.2387    0.0000 C   0  0  0  0  0  0  0  0  0  0  0  0
   -0.9935    1.0451    0.0000 C   0  0  0  0  0  0  0  0  0  0  0  0
   -1.3935   -0.3161    0.0000 C   0  0  0  0  0  0  0  0  0  0  0  0
   -0.4064    1.6128    0.0000 N   0  0  0  0  0  0  0  0  0  0  0  0
   -1.7870    1.2838    0.0000 C   0  0  0  0  0  0  0  0  0  0  0  0
   -2.1870   -0.0774    0.0000 C   0  0  0  0  0  0  0  0  0  0  0  0
    0.3742    1.3870    0.0000 C   0  0  0  0  0  0  0  0  0  0  0  0
   -2.1483    2.0321    0.0000 N   0  0  0  0  0  0  0  0  0  0  0  0
   -2.3869    0.7290    0.0000 C   0  0  0  0  0  0  0  0  0  0  0  0
    1.0193    1.8902    0.0000 N   0  0  0  0  0  0  0  0  0  0  0  0
    0.6387    0.6193    0.0000 N   0  0  0  0  0  0  0  0  0  0  0  0
   -2.9676    1.9354    0.0000 S   0  0  0  0  0  0  0  0  0  0  0  0
   -3.1159    1.1289    0.0000 N   0  0  0  0  0  0  0  0  0  0  0  0
    1.6902    1.4322    0.0000 C   0  0  0  0  0  0  0  0  0  0  0  0
    1.4515    0.6451    0.0000 C   0  0  0  0  0  0  0  0  0  0  0  0
  1  2  1  0  0  0  0
  2  3  2  0  0  0  0
  2  4  1  0  0  0  0
  3  5  1  0  0  0  0
  3  6  1  0  0  0  0
  4  7  2  0  0  0  0
  5  8  1  0  0  0  0
  6  9  2  0  0  0  0
  6 10  1  0  0  0  0
  8 11  2  0  0  0  0
  8 12  1  0  0  0  0
  9 13  1  0  0  0  0
 10 14  2  0  0  0  0
 11 15  1  0  0  0  0
 12 16  1  0  0  0  0
  7 10  1  0  0  0  0
 13 14  1  0  0  0  0
 15 16  1  0  0  0  0
M  END

>  <name>
Tizanidine

>  <ROTATABLE_BONDCOUNT>
1

>  <HBDScore>
0.5

>  <dipole>
1.94

>  <logD>
1.68

>  <MPOScore>
5.5

>  <logDScore>
1.0

>  <MW>
253.71

>  <charge_dist(7.4)>
0.55

>  <CNS>
TRUE

>  <ArRings>
2

>  <HBD>
2

>  <BALABAN_INDEX>
1.46

>  <bpKa>
7.49

>  <TPSAScore>
1.0

>  <MWScore>
1.0

>  <bpKaScore>
1.0

>  <logPScore>
1.0

>  <MPO_area>
83.33

>  <TPSA>
62.20

>  <logP>
2.02

$$$$

  Mrv1722703221715202D          

 14 14  0  0  0  0            999 V2000
    0.0000    0.0000    0.0000 O   0  0  0  0  0  0  0  0  0  0  0  0
   -0.1602   -0.8073    0.0000 C   0  0  0  0  0  0  0  0  0  0  0  0
    0.4613   -1.3391    0.0000 N   0  0  0  0  0  0  0  0  0  0  0  0
   -0.9483   -1.0765    0.0000 C   0  0  1  0  0  0  0  0  0  0  0  0
    1.2366   -1.0572    0.0000 C   0  0  0  0  0  0  0  0  0  0  0  0
   -1.1085   -1.8838    0.0000 N   0  0  0  0  0  0  0  0  0  0  0  0
   -1.5826   -0.5318    0.0000 C   0  0  0  0  0  0  0  0  0  0  0  0
    1.8581   -1.5890    0.0000 C   0  0  0  0  0  0  0  0  0  0  0  0
    1.3840   -0.2371    0.0000 C   0  0  0  0  0  0  0  0  0  0  0  0
    2.6334   -1.3071    0.0000 C   0  0  0  0  0  0  0  0  0  0  0  0
    1.6980   -2.3964    0.0000 C   0  0  0  0  0  0  0  0  0  0  0  0
    2.1593    0.0448    0.0000 C   0  0  0  0  0  0  0  0  0  0  0  0
    0.7496    0.3075    0.0000 C   0  0  0  0  0  0  0  0  0  0  0  0
    2.7808   -0.4870    0.0000 C   0  0  0  0  0  0  0  0  0  0  0  0
  1  2  2  0  0  0  0
  2  3  1  0  0  0  0
  2  4  1  0  0  0  0
  3  5  1  0  0  0  0
  4  6  1  1  0  0  0
  4  7  1  0  0  0  0
  5  8  2  0  0  0  0
  5  9  1  0  0  0  0
  8 10  1  0  0  0  0
  8 11  1  0  0  0  0
  9 12  2  0  0  0  0
  9 13  1  0  0  0  0
 10 14  2  0  0  0  0
 12 14  1  0  0  0  0
M  END

>  <name>
Tocainide

>  <ROTATABLE_BONDCOUNT>
2

>  <HBDScore>
0.5

>  <dipole>
4.95

>  <logD>
1.00

>  <MPOScore>
5.385

>  <logDScore>
1.0

>  <MW>
192.262

>  <charge_dist(7.4)>
0.87

>  <CNS>
TRUE

>  <ArRings>
1

>  <HBD>
2

>  <BALABAN_INDEX>
2.47

>  <bpKa>
8.23

>  <TPSAScore>
1.0

>  <MWScore>
1.0

>  <bpKaScore>
0.8849999999999998

>  <logPScore>
1.0

>  <MPO_area>
80.46

>  <TPSA>
55.12

>  <logP>
1.88

$$$$

  Mrv1722703221715202D          

 20 21  0  0  0  0            999 V2000
    0.0000    0.0000    0.0000 O   0  0  0  0  0  0  0  0  0  0  0  0
   -0.6733   -0.4681    0.0000 N   0  3  0  0  0  0  0  0  0  0  0  0
   -0.6028   -1.2761    0.0000 O   0  5  0  0  0  0  0  0  0  0  0  0
   -1.4235   -0.1218    0.0000 C   0  0  0  0  0  0  0  0  0  0  0  0
   -1.5069    0.6990    0.0000 C   0  0  0  0  0  0  0  0  0  0  0  0
   -2.0968   -0.5899    0.0000 C   0  0  0  0  0  0  0  0  0  0  0  0
   -0.8464    1.1799    0.0000 O   0  0  0  0  0  0  0  0  0  0  0  0
   -2.2572    1.0452    0.0000 C   0  0  0  0  0  0  0  0  0  0  0  0
   -2.8471   -0.2437    0.0000 C   0  0  0  0  0  0  0  0  0  0  0  0
   -2.3405    1.8660    0.0000 O   0  0  0  0  0  0  0  0  0  0  0  0
   -2.9305    0.5771    0.0000 C   0  0  0  0  0  0  0  0  0  0  0  0
   -3.5204   -0.7118    0.0000 C   0  0  0  0  0  0  0  0  0  0  0  0
   -3.4499   -1.5197    0.0000 O   0  0  0  0  0  0  0  0  0  0  0  0
   -4.2706   -0.3655    0.0000 C   0  0  0  0  0  0  0  0  0  0  0  0
   -4.3540    0.4553    0.0000 C   0  0  0  0  0  0  0  0  0  0  0  0
   -4.9439   -0.8336    0.0000 C   0  0  0  0  0  0  0  0  0  0  0  0
   -5.1043    0.8015    0.0000 C   0  0  0  0  0  0  0  0  0  0  0  0
   -5.6942   -0.4874    0.0000 C   0  0  0  0  0  0  0  0  0  0  0  0
   -5.7776    0.3334    0.0000 C   0  0  0  0  0  0  0  0  0  0  0  0
   -6.5278    0.6797    0.0000 C   0  0  0  0  0  0  0  0  0  0  0  0
  1  2  2  0  0  0  0
  2  3  1  0  0  0  0
  2  4  1  0  0  0  0
  4  5  2  0  0  0  0
  4  6  1  0  0  0  0
  5  7  1  0  0  0  0
  5  8  1  0  0  0  0
  6  9  2  0  0  0  0
  8 10  1  0  0  0  0
  8 11  2  0  0  0  0
  9 12  1  0  0  0  0
 12 13  2  0  0  0  0
 12 14  1  0  0  0  0
 14 15  2  0  0  0  0
 14 16  1  0  0  0  0
 15 17  1  0  0  0  0
 16 18  2  0  0  0  0
 17 19  2  0  0  0  0
 19 20  1  0  0  0  0
  9 11  1  0  0  0  0
 18 19  1  0  0  0  0
M  CHG  2   2   1   3  -1
M  END

>  <name>
Tolcapone

>  <ROTATABLE_BONDCOUNT>
3

>  <HBDScore>
0.5

>  <dipole>
12.75

>  <logD>
1.61

>  <MPOScore>
5.004333333333333

>  <logDScore>
1.0

>  <MW>
273.244

>  <charge_dist(7.4)>
-0.99

>  <CNS>
TRUE

>  <ArRings>
2

>  <HBD>
2

>  <BALABAN_INDEX>
1.97

>  <bpKa>
-6.47

>  <TPSAScore>
0.6443333333333332

>  <MWScore>
1.0

>  <bpKaScore>
1.0

>  <logPScore>
0.8600000000000001

>  <MPO_area>
70.6

>  <TPSA>
100.67

>  <logP>
3.28

$$$$

  Mrv1722703221715202D          

 19 20  0  0  0  0            999 V2000
    0.0000    0.0000    0.0000 O   0  0  0  0  0  0  0  0  0  0  0  0
   -0.3005    0.7736    0.0000 C   0  0  0  0  0  0  0  0  0  0  0  0
    0.2110    1.4194    0.0000 C   0  0  0  0  0  0  0  0  0  0  0  0
   -1.1189    0.9079    0.0000 C   0  0  0  0  0  0  0  0  0  0  0  0
    1.0166    1.2979    0.0000 C   0  0  0  0  0  0  0  0  0  0  0  0
   -0.0895    2.1931    0.0000 C   0  0  0  0  0  0  0  0  0  0  0  0
   -1.4961    1.6496    0.0000 N   0  0  0  0  0  0  0  0  0  0  0  0
   -1.7071    0.3325    0.0000 C   0  0  0  0  0  0  0  0  0  0  0  0
    1.5281    1.9437    0.0000 C   0  0  0  0  0  0  0  0  0  0  0  0
    0.4220    2.8388    0.0000 C   0  0  0  0  0  0  0  0  0  0  0  0
   -2.3145    1.5281    0.0000 C   0  0  0  0  0  0  0  0  0  0  0  0
   -1.1317    2.3912    0.0000 C   0  0  0  0  0  0  0  0  0  0  0  0
   -2.4488    0.7097    0.0000 C   0  0  0  0  0  0  0  0  0  0  0  0
    1.2276    2.7173    0.0000 C   0  0  0  0  0  0  0  0  0  0  0  0
   -2.9028    2.1163    0.0000 C   0  0  0  0  0  0  0  0  0  0  0  0
    1.7391    3.3631    0.0000 C   0  0  0  0  0  0  0  0  0  0  0  0
   -2.6981    2.9155    0.0000 C   0  0  0  0  0  0  0  0  0  0  0  0
   -1.9117    3.1329    0.0000 O   0  0  0  0  0  0  0  0  0  0  0  0
   -3.2864    3.5038    0.0000 O   0  0  0  0  0  0  0  0  0  0  0  0
  1  2  2  0  0  0  0
  2  3  1  0  0  0  0
  2  4  1  0  0  0  0
  3  5  2  0  0  0  0
  3  6  1  0  0  0  0
  4  7  1  0  0  0  0
  4  8  2  0  0  0  0
  5  9  1  0  0  0  0
  6 10  2  0  0  0  0
  7 11  1  0  0  0  0
  7 12  1  0  0  0  0
  8 13  1  0  0  0  0
  9 14  2  0  0  0  0
 11 15  1  0  0  0  0
 14 16  1  0  0  0  0
 15 17  1  0  0  0  0
 17 18  2  0  0  0  0
 17 19  1  0  0  0  0
 10 14  1  0  0  0  0
 11 13  2  0  0  0  0
M  END

>  <name>
Tolmetin

>  <ROTATABLE_BONDCOUNT>
4

>  <HBDScore>
0.8333333333333334

>  <dipole>
6.68

>  <logD>
-0.47

>  <MPOScore>
5.833333333333333

>  <logDScore>
1.0

>  <MW>
257.289

>  <charge_dist(7.4)>
-1.00

>  <CNS>
TRUE

>  <ArRings>
2

>  <HBD>
1

>  <BALABAN_INDEX>
1.69

>  <bpKa>
-7.78

>  <TPSAScore>
1.0

>  <MWScore>
1.0

>  <bpKaScore>
1.0

>  <logPScore>
1.0

>  <MPO_area>
94.44

>  <TPSA>
59.30

>  <logP>
2.73

$$$$

  Mrv1722703221715202D          

 31 35  0  0  0  0            999 V2000
    0.0000    0.0000    0.0000 O   0  0  0  0  0  0  0  0  0  0  0  0
   -0.0904    0.8200    0.0000 C   0  0  0  0  0  0  0  0  0  0  0  0
   -0.8458    1.1622    0.0000 N   0  0  0  0  0  0  0  0  0  0  0  0
    0.5682    1.3042    0.0000 C   0  0  0  0  0  0  0  0  0  0  0  0
   -0.9362    1.9822    0.0000 C   0  0  0  0  0  0  0  0  0  0  0  0
   -1.6013    0.8393    0.0000 C   0  0  0  0  0  0  0  0  0  0  0  0
    0.4778    2.1243    0.0000 C   0  0  0  0  0  0  0  0  0  0  0  0
    1.3107    0.9749    0.0000 C   0  0  0  0  0  0  0  0  0  0  0  0
   -1.7433    2.1630    0.0000 C   0  0  0  0  0  0  0  0  0  0  0  0
   -0.2777    2.4665    0.0000 C   0  0  0  0  0  0  0  0  0  0  0  0
   -2.1565    1.4592    0.0000 C   0  0  0  0  0  0  0  0  0  0  0  0
    1.1364    2.6085    0.0000 C   0  0  2  0  0  0  0  0  0  0  0  0
    1.9693    1.4592    0.0000 O   0  0  0  0  0  0  0  0  0  0  0  0
   -2.1565    2.8797    0.0000 N   0  0  0  0  0  0  0  0  0  0  0  0
   -2.9830    1.4657    0.0000 C   0  0  0  0  0  0  0  0  0  0  0  0
    1.5884    3.2929    0.0000 O   0  0  0  0  0  0  0  0  0  0  0  0
    1.8789    2.2792    0.0000 C   0  0  0  0  0  0  0  0  0  0  0  0
    0.5424    3.1896    0.0000 C   0  0  0  0  0  0  0  0  0  0  0  0
   -2.9830    2.8861    0.0000 C   0  0  0  0  0  0  0  0  0  0  0  0
   -3.3962    2.1824    0.0000 C   0  0  0  0  0  0  0  0  0  0  0  0
    2.5375    2.7635    0.0000 O   0  0  0  0  0  0  0  0  0  0  0  0
    0.7361    3.9902    0.0000 C   0  0  0  0  0  0  0  0  0  0  0  0
   -3.3962    3.6028    0.0000 C   0  0  0  0  0  0  0  0  0  0  0  0
   -4.2227    2.1888    0.0000 C   0  0  0  0  0  0  0  0  0  0  0  0
   -4.2227    3.6093    0.0000 C   0  0  0  0  0  0  0  0  0  0  0  0
   -4.6359    2.9055    0.0000 C   0  0  0  0  0  0  0  0  0  0  0  0
   -4.6423    1.4850    0.0000 C   0  0  0  0  0  0  0  0  0  0  0  0
   -5.4624    2.9120    0.0000 O   0  0  0  0  0  0  0  0  0  0  0  0
   -5.4688    1.4915    0.0000 N   0  0  0  0  0  0  0  0  0  0  0  0
   -5.8885    0.7877    0.0000 C   0  0  0  0  0  0  0  0  0  0  0  0
   -5.8820    2.2082    0.0000 C   0  0  0  0  0  0  0  0  0  0  0  0
  1  2  2  0  0  0  0
  2  3  1  0  0  0  0
  2  4  1  0  0  0  0
  3  5  1  0  0  0  0
  3  6  1  0  0  0  0
  4  7  2  0  0  0  0
  4  8  1  0  0  0  0
  5  9  1  0  0  0  0
  5 10  2  0  0  0  0
  6 11  1  0  0  0  0
  7 12  1  0  0  0  0
  8 13  1  0  0  0  0
  9 14  2  0  0  0  0
 11 15  2  0  0  0  0
 12 16  1  6  0  0  0
 12 17  1  0  0  0  0
 12 18  1  0  0  0  0
 14 19  1  0  0  0  0
 15 20  1  0  0  0  0
 17 21  2  0  0  0  0
 18 22  1  0  0  0  0
 19 23  2  0  0  0  0
 20 24  2  0  0  0  0
 23 25  1  0  0  0  0
 24 26  1  0  0  0  0
 24 27  1  0  0  0  0
 26 28  1  0  0  0  0
 27 29  1  0  0  0  0
 29 30  1  0  0  0  0
 29 31  1  0  0  0  0
  7 10  1  0  0  0  0
  9 11  1  0  0  0  0
 13 17  1  0  0  0  0
 19 20  1  0  0  0  0
 25 26  2  0  0  0  0
M  END

>  <name>
Topotecan

>  <ROTATABLE_BONDCOUNT>
3

>  <HBDScore>
0.5

>  <dipole>
10.76

>  <logD>
-0.91

>  <MPOScore>
3.7460500000000003

>  <logDScore>
1.0

>  <MW>
421.453

>  <charge_dist(7.4)>
0.61

>  <CNS>
TRUE

>  <ArRings>
3

>  <HBD>
2

>  <BALABAN_INDEX>
1.18

>  <bpKa>
9.75

>  <TPSAScore>
0.5599999999999998

>  <MWScore>
0.5610500000000003

>  <bpKaScore>
0.125

>  <logPScore>
1.0

>  <MPO_area>
39.05

>  <TPSA>
103.20

>  <logP>
-0.33

$$$$

  Mrv1722703221715202D          

 19 20  0  0  0  0            999 V2000
    0.0000    0.0000    0.0000 O   0  0  0  0  0  0  0  0  0  0  0  0
   -0.3994    0.7279    0.0000 C   0  0  0  0  0  0  0  0  0  0  0  0
   -0.4316   -0.6893    0.0000 C   0  0  0  0  0  0  0  0  0  0  0  0
   -1.2240    0.7537    0.0000 C   0  0  0  0  0  0  0  0  0  0  0  0
    0.0193    1.4302    0.0000 C   0  0  0  0  0  0  0  0  0  0  0  0
   -1.6234    1.4817    0.0000 C   0  0  0  0  0  0  0  0  0  0  0  0
   -0.3801    2.1581    0.0000 C   0  0  0  0  0  0  0  0  0  0  0  0
   -1.2047    2.1839    0.0000 C   0  0  0  0  0  0  0  0  0  0  0  0
   -2.4480    1.5075    0.0000 C   0  0  1  0  0  0  0  0  0  0  0  0
   -2.3321    0.7022    0.0000 O   0  0  0  0  0  0  0  0  0  0  0  0
   -3.2275    1.2562    0.0000 C   0  0  1  0  0  0  0  0  0  0  0  0
   -2.2934    2.3192    0.0000 C   0  0  0  0  0  0  0  0  0  0  0  0
   -3.8459    1.8038    0.0000 C   0  0  0  0  0  0  0  0  0  0  0  0
   -3.3950    0.4574    0.0000 C   0  0  0  0  0  0  0  0  0  0  0  0
   -2.9119    2.8667    0.0000 C   0  0  0  0  0  0  0  0  0  0  0  0
   -3.6913    2.6155    0.0000 C   0  0  0  0  0  0  0  0  0  0  0  0
   -4.1745    0.2061    0.0000 N   0  0  0  0  0  0  0  0  0  0  0  0
   -4.3420   -0.5927    0.0000 C   0  0  0  0  0  0  0  0  0  0  0  0
   -4.7930    0.7537    0.0000 C   0  0  0  0  0  0  0  0  0  0  0  0
  1  2  1  0  0  0  0
  1  3  1  0  0  0  0
  2  4  2  0  0  0  0
  2  5  1  0  0  0  0
  4  6  1  0  0  0  0
  5  7  2  0  0  0  0
  6  8  2  0  0  0  0
  6  9  1  0  0  0  0
  9 10  1  6  0  0  0
  9 11  1  0  0  0  0
  9 12  1  0  0  0  0
 11 13  1  0  0  0  0
 11 14  1  6  0  0  0
 12 15  1  0  0  0  0
 13 16  1  0  0  0  0
 14 17  1  0  0  0  0
 17 18  1  0  0  0  0
 17 19  1  0  0  0  0
  7  8  1  0  0  0  0
 15 16  1  0  0  0  0
M  END

>  <name>
Tramadol

>  <ROTATABLE_BONDCOUNT>
4

>  <HBDScore>
0.8333333333333334

>  <dipole>
3.90

>  <logD>
0.62

>  <MPOScore>
4.8533333333333335

>  <logDScore>
1.0

>  <MW>
263.381

>  <charge_dist(7.4)>
0.99

>  <CNS>
TRUE

>  <ArRings>
1

>  <HBD>
1

>  <BALABAN_INDEX>
1.87

>  <bpKa>
9.23

>  <TPSAScore>
0.6350000000000002

>  <MWScore>
1.0

>  <bpKaScore>
0.3849999999999998

>  <logPScore>
1.0

>  <MPO_area>
66.53

>  <TPSA>
32.70

>  <logP>
2.45

$$$$

  Mrv1722703221715202D          

 10 11  0  0  0  0            999 V2000
    0.0000    0.0000    0.0000 N   0  0  0  0  0  0  0  0  0  0  0  0
   -0.5342    0.6360    0.0000 C   0  0  2  0  0  0  0  0  0  0  0  0
   -1.3101    0.9222    0.0000 C   0  0  2  0  0  0  0  0  0  0  0  0
   -0.6805    1.4501    0.0000 C   0  0  0  0  0  0  0  0  0  0  0  0
   -2.1242    0.7887    0.0000 C   0  0  0  0  0  0  0  0  0  0  0  0
   -2.4104    0.0255    0.0000 C   0  0  0  0  0  0  0  0  0  0  0  0
   -2.6584    1.4246    0.0000 C   0  0  0  0  0  0  0  0  0  0  0  0
   -3.2245   -0.1081    0.0000 C   0  0  0  0  0  0  0  0  0  0  0  0
   -3.4726    1.2911    0.0000 C   0  0  0  0  0  0  0  0  0  0  0  0
   -3.7587    0.5279    0.0000 C   0  0  0  0  0  0  0  0  0  0  0  0
  2  1  1  6  0  0  0
  2  3  1  0  0  0  0
  2  4  1  0  0  0  0
  3  5  1  1  0  0  0
  5  6  2  0  0  0  0
  5  7  1  0  0  0  0
  6  8  1  0  0  0  0
  7  9  2  0  0  0  0
  8 10  2  0  0  0  0
  3  4  1  0  0  0  0
  9 10  1  0  0  0  0
M  END

>  <name>
Tranylcypromine

>  <ROTATABLE_BONDCOUNT>
1

>  <HBDScore>
0.8333333333333334

>  <dipole>
0.58

>  <logD>
-0.82

>  <MPOScore>
4.324333333333334

>  <logDScore>
1.0

>  <MW>
133.194

>  <charge_dist(7.4)>
0.99

>  <CNS>
TRUE

>  <ArRings>
1

>  <HBD>
1

>  <BALABAN_INDEX>
1.48

>  <bpKa>
9.62

>  <TPSAScore>
0.301

>  <MWScore>
1.0

>  <bpKaScore>
0.1900000000000004

>  <logPScore>
1.0

>  <MPO_area>
55.52

>  <TPSA>
26.02

>  <logP>
1.34

$$$$

  Mrv1722703221715202D          

 26 29  0  0  0  0            999 V2000
    0.0000    0.0000    0.0000 Cl  0  0  0  0  0  0  0  0  0  0  0  0
    0.1234    0.8249    0.0000 C   0  0  0  0  0  0  0  0  0  0  0  0
    0.8899    1.1302    0.0000 C   0  0  0  0  0  0  0  0  0  0  0  0
   -0.5261    1.3510    0.0000 C   0  0  0  0  0  0  0  0  0  0  0  0
    1.0132    1.9550    0.0000 C   0  0  0  0  0  0  0  0  0  0  0  0
   -0.4027    2.1759    0.0000 C   0  0  0  0  0  0  0  0  0  0  0  0
    1.7797    2.2603    0.0000 N   0  0  0  0  0  0  0  0  0  0  0  0
    0.3637    2.4812    0.0000 C   0  0  0  0  0  0  0  0  0  0  0  0
    2.4162    1.7472    0.0000 C   0  0  0  0  0  0  0  0  0  0  0  0
    1.9031    3.0852    0.0000 C   0  0  0  0  0  0  0  0  0  0  0  0
    3.1827    2.0525    0.0000 C   0  0  0  0  0  0  0  0  0  0  0  0
    2.6695    3.3905    0.0000 C   0  0  0  0  0  0  0  0  0  0  0  0
    3.3060    2.8774    0.0000 N   0  0  0  0  0  0  0  0  0  0  0  0
    4.0725    3.1827    0.0000 C   0  0  0  0  0  0  0  0  0  0  0  0
    4.7090    2.6695    0.0000 C   0  0  0  0  0  0  0  0  0  0  0  0
    5.4755    2.9748    0.0000 C   0  0  0  0  0  0  0  0  0  0  0  0
    6.1120    2.4617    0.0000 N   0  0  0  0  0  0  0  0  0  0  0  0
    6.0600    1.6433    0.0000 N   0  0  0  0  0  0  0  0  0  0  0  0
    6.9044    2.6825    0.0000 C   0  0  0  0  0  0  0  0  0  0  0  0
    6.8265    1.3510    0.0000 C   0  0  0  0  0  0  0  0  0  0  0  0
    7.1967    3.4619    0.0000 O   0  0  0  0  0  0  0  0  0  0  0  0
    7.3461    1.9941    0.0000 N   0  0  0  0  0  0  0  0  0  0  0  0
    7.1188    0.5846    0.0000 C   0  0  0  0  0  0  0  0  0  0  0  0
    8.1580    1.8706    0.0000 C   0  0  0  0  0  0  0  0  0  0  0  0
    7.9307    0.4611    0.0000 C   0  0  0  0  0  0  0  0  0  0  0  0
    8.4503    1.1042    0.0000 C   0  0  0  0  0  0  0  0  0  0  0  0
  1  2  1  0  0  0  0
  2  3  2  0  0  0  0
  2  4  1  0  0  0  0
  3  5  1  0  0  0  0
  4  6  2  0  0  0  0
  5  7  1  0  0  0  0
  5  8  2  0  0  0  0
  7  9  1  0  0  0  0
  7 10  1  0  0  0  0
  9 11  1  0  0  0  0
 10 12  1  0  0  0  0
 11 13  1  0  0  0  0
 13 14  1  0  0  0  0
 14 15  1  0  0  0  0
 15 16  1  0  0  0  0
 16 17  1  0  0  0  0
 17 18  1  0  0  0  0
 17 19  1  0  0  0  0
 18 20  2  0  0  0  0
 19 21  2  0  0  0  0
 19 22  1  0  0  0  0
 20 23  1  0  0  0  0
 22 24  1  0  0  0  0
 23 25  2  0  0  0  0
 24 26  2  0  0  0  0
  6  8  1  0  0  0  0
 12 13  1  0  0  0  0
 20 22  1  0  0  0  0
 25 26  1  0  0  0  0
M  END

>  <name>
Trazodone

>  <ROTATABLE_BONDCOUNT>
5

>  <HBDScore>
1.0

>  <dipole>
3.18

>  <logD>
2.96

>  <MPOScore>
5.370214285714286

>  <logDScore>
0.52

>  <MW>
371.87

>  <charge_dist(7.4)>
0.33

>  <CNS>
TRUE

>  <ArRings>
3

>  <HBD>
0

>  <BALABAN_INDEX>
0.98

>  <bpKa>
7.09

>  <TPSAScore>
1.0

>  <MWScore>
0.9152142857142856

>  <bpKaScore>
1.0

>  <logPScore>
0.935

>  <MPO_area>
79.78

>  <TPSA>
42.39

>  <logP>
3.13

$$$$

  Mrv1722703221715202D          

 22 24  0  0  0  0            999 V2000
    0.0000    0.0000    0.0000 N   0  0  0  0  0  0  0  0  0  0  0  0
    0.8157   -0.0130    0.0000 C   0  0  0  0  0  0  0  0  0  0  0  0
   -0.5050    0.6603    0.0000 C   0  0  0  0  0  0  0  0  0  0  0  0
   -0.3820   -0.7251    0.0000 C   0  0  0  0  0  0  0  0  0  0  0  0
    1.3336    0.6280    0.0000 C   0  0  0  0  0  0  0  0  0  0  0  0
    1.0941   -0.7769    0.0000 C   0  0  0  0  0  0  0  0  0  0  0  0
   -0.3108    1.4631    0.0000 C   0  0  0  0  0  0  0  0  0  0  0  0
   -1.3013    0.4402    0.0000 C   0  0  0  0  0  0  0  0  0  0  0  0
   -1.2106   -0.7639    0.0000 C   0  0  2  0  0  0  0  0  0  0  0  0
    2.1365    0.4920    0.0000 C   0  0  0  0  0  0  0  0  0  0  0  0
    1.1589    1.4372    0.0000 C   0  0  0  0  0  0  0  0  0  0  0  0
    1.8969   -0.9128    0.0000 C   0  0  0  0  0  0  0  0  0  0  0  0
   -0.9064    2.0393    0.0000 C   0  0  0  0  0  0  0  0  0  0  0  0
    0.4337    1.8127    0.0000 C   0  0  0  0  0  0  0  0  0  0  0  0
   -1.8969    1.0164    0.0000 C   0  0  0  0  0  0  0  0  0  0  0  0
   -1.6638   -0.0647    0.0000 C   0  0  0  0  0  0  0  0  0  0  0  0
   -1.5926   -1.4890    0.0000 C   0  0  0  0  0  0  0  0  0  0  0  0
    2.4148   -0.2719    0.0000 C   0  0  0  0  0  0  0  0  0  0  0  0
   -1.7027    1.8192    0.0000 C   0  0  0  0  0  0  0  0  0  0  0  0
   -2.4925   -0.1036    0.0000 N   0  0  0  0  0  0  0  0  0  0  0  0
   -2.9457    0.5956    0.0000 C   0  0  0  0  0  0  0  0  0  0  0  0
   -2.8745   -0.8287    0.0000 C   0  0  0  0  0  0  0  0  0  0  0  0
  1  2  1  0  0  0  0
  1  3  1  0  0  0  0
  1  4  1  0  0  0  0
  2  5  2  0  0  0  0
  2  6  1  0  0  0  0
  3  7  2  0  0  0  0
  3  8  1  0  0  0  0
  4  9  1  0  0  0  0
  5 10  1  0  0  0  0
  5 11  1  0  0  0  0
  6 12  2  0  0  0  0
  7 13  1  0  0  0  0
  7 14  1  0  0  0  0
  8 15  2  0  0  0  0
  9 16  1  0  0  0  0
  9 17  1  1  0  0  0
 10 18  2  0  0  0  0
 13 19  2  0  0  0  0
 16 20  1  0  0  0  0
 20 21  1  0  0  0  0
 20 22  1  0  0  0  0
 11 14  1  0  0  0  0
 12 18  1  0  0  0  0
 15 19  1  0  0  0  0
M  END

>  <name>
Trimipramine

>  <ROTATABLE_BONDCOUNT>
4

>  <HBDScore>
1.0

>  <dipole>
5.09

>  <logD>
2.75

>  <MPOScore>
3.035

>  <logDScore>
0.625

>  <MW>
294.442

>  <charge_dist(7.4)>
0.99

>  <CNS>
TRUE

>  <ArRings>
2

>  <HBD>
0

>  <BALABAN_INDEX>
1.75

>  <bpKa>
9.42

>  <TPSAScore>
0.0

>  <MWScore>
1.0

>  <bpKaScore>
0.29000000000000004

>  <logPScore>
0.1200000000000001

>  <MPO_area>
30.68

>  <TPSA>
6.48

>  <logP>
4.76

$$$$

  Mrv1722703221715202D          

 21 23  0  0  0  0            999 V2000
    0.0000    0.0000    0.0000 N   0  0  0  0  0  0  0  0  0  0  0  0
   -0.8038    0.2074    0.0000 C   0  0  0  0  0  0  0  0  0  0  0  0
    0.5704    0.5963    0.0000 C   0  0  0  0  0  0  0  0  0  0  0  0
   -1.3871   -0.3759    0.0000 C   0  0  0  0  0  0  0  0  0  0  0  0
   -1.0371    1.0047    0.0000 C   0  0  0  0  0  0  0  0  0  0  0  0
    0.3371    1.3936    0.0000 C   0  0  0  0  0  0  0  0  0  0  0  0
   -1.1667   -1.1602    0.0000 C   0  0  0  0  0  0  0  0  0  0  0  0
   -2.1909   -0.1686    0.0000 C   0  0  0  0  0  0  0  0  0  0  0  0
   -0.4667    1.6010    0.0000 C   0  0  0  0  0  0  0  0  0  0  0  0
   -1.7501   -1.7436    0.0000 C   0  0  0  0  0  0  0  0  0  0  0  0
   -0.3759   -1.3547    0.0000 C   0  0  0  0  0  0  0  0  0  0  0  0
   -2.7742   -0.7519    0.0000 C   0  0  0  0  0  0  0  0  0  0  0  0
   -1.5297   -2.5279    0.0000 C   0  0  0  0  0  0  0  0  0  0  0  0
   -0.1556   -2.1390    0.0000 C   0  0  0  0  0  0  0  0  0  0  0  0
   -3.5780   -0.5445    0.0000 N   0  0  0  0  0  0  0  0  0  0  0  0
   -0.7389   -2.7224    0.0000 C   0  0  0  0  0  0  0  0  0  0  0  0
   -4.2196   -1.0695    0.0000 C   0  0  0  0  0  0  0  0  0  0  0  0
   -3.8956    0.2268    0.0000 C   0  0  0  0  0  0  0  0  0  0  0  0
   -0.5185   -3.5067    0.0000 C   0  0  0  0  0  0  0  0  0  0  0  0
   -4.9262   -0.6222    0.0000 C   0  0  0  0  0  0  0  0  0  0  0  0
   -4.7253    0.1750    0.0000 C   0  0  0  0  0  0  0  0  0  0  0  0
  1  2  2  0  0  0  0
  1  3  1  0  0  0  0
  2  4  1  0  0  0  0
  2  5  1  0  0  0  0
  3  6  2  0  0  0  0
  4  7  1  0  0  0  0
  4  8  2  0  0  0  0
  5  9  2  0  0  0  0
  7 10  2  0  0  0  0
  7 11  1  0  0  0  0
  8 12  1  0  0  0  0
 10 13  1  0  0  0  0
 11 14  2  0  0  0  0
 12 15  1  0  0  0  0
 13 16  2  0  0  0  0
 15 17  1  0  0  0  0
 15 18  1  0  0  0  0
 16 19  1  0  0  0  0
 17 20  1  0  0  0  0
 18 21  1  0  0  0  0
  6  9  1  0  0  0  0
 14 16  1  0  0  0  0
 20 21  1  0  0  0  0
M  END

>  <name>
Triprolidine

>  <ROTATABLE_BONDCOUNT>
4

>  <HBDScore>
1.0

>  <dipole>
8.69

>  <logD>
2.79

>  <MPOScore>
3.76

>  <logDScore>
0.605

>  <MW>
278.399

>  <charge_dist(7.4)>
0.95

>  <CNS>
TRUE

>  <ArRings>
2

>  <HBD>
0

>  <BALABAN_INDEX>
1.35

>  <bpKa>
8.64

>  <TPSAScore>
0.0

>  <MWScore>
1.0

>  <bpKaScore>
0.6799999999999997

>  <logPScore>
0.4750000000000001

>  <MPO_area>
39.65

>  <TPSA>
16.13

>  <logP>
4.05

$$$$

  Mrv1722703221715202D          

 31 34  0  0  0  0            999 V2000
    0.0000    0.0000    0.0000 S   0  0  0  0  0  0  0  0  0  0  0  0
   -0.3009    0.7850    0.0000 C   0  0  0  0  0  0  0  0  0  0  0  0
    0.8242    0.0523    0.0000 C   0  0  0  0  0  0  0  0  0  0  0  0
   -1.1120    1.0073    0.0000 O   0  0  0  0  0  0  0  0  0  0  0  0
    0.3401    1.3148    0.0000 N   0  0  0  0  0  0  0  0  0  0  0  0
    1.0335    0.8635    0.0000 C   0  0  0  0  0  0  0  0  0  0  0  0
    1.3410   -0.5887    0.0000 C   0  0  0  0  0  0  0  0  0  0  0  0
    1.8054    1.1643    0.0000 O   0  0  0  0  0  0  0  0  0  0  0  0
    2.1521   -0.4514    0.0000 C   0  0  0  0  0  0  0  0  0  0  0  0
    2.6689   -1.0924    0.0000 C   0  0  0  0  0  0  0  0  0  0  0  0
    2.4464    0.3336    0.0000 C   0  0  0  0  0  0  0  0  0  0  0  0
    3.4800   -0.9551    0.0000 C   0  0  0  0  0  0  0  0  0  0  0  0
    3.2576    0.4710    0.0000 C   0  0  0  0  0  0  0  0  0  0  0  0
    3.7743   -0.1701    0.0000 C   0  0  0  0  0  0  0  0  0  0  0  0
    4.5854   -0.0327    0.0000 O   0  0  0  0  0  0  0  0  0  0  0  0
    5.1022   -0.6737    0.0000 C   0  0  0  0  0  0  0  0  0  0  0  0
    5.9133   -0.5364    0.0000 C   0  0  0  0  0  0  0  0  0  0  0  0
    6.7245   -0.6868    0.0000 O   0  0  0  0  0  0  0  0  0  0  0  0
    5.6386    0.2551    0.0000 C   0  0  0  0  0  0  0  0  0  0  0  0
    5.8937   -1.3606    0.0000 C   0  0  0  0  0  0  0  0  0  0  0  0
    7.2608   -0.0523    0.0000 C   0  0  0  0  0  0  0  0  0  0  0  0
    6.1750    0.8896    0.0000 C   0  0  0  0  0  0  0  0  0  0  0  0
    6.9861    0.7392    0.0000 C   0  0  0  0  0  0  0  0  0  0  0  0
    8.0719   -0.2028    0.0000 C   0  0  0  0  0  0  0  0  0  0  0  0
    7.5225    1.3737    0.0000 C   0  0  0  0  0  0  0  0  0  0  0  0
    8.6083    0.4317    0.0000 C   0  0  0  0  0  0  0  0  0  0  0  0
    8.3336   -0.9812    0.0000 C   0  0  0  0  0  0  0  0  0  0  0  0
    8.3336    1.2232    0.0000 C   0  0  0  0  0  0  0  0  0  0  0  0
    7.2477    2.1652    0.0000 C   0  0  0  0  0  0  0  0  0  0  0  0
    9.4195    0.2813    0.0000 C   0  0  0  0  0  0  0  0  0  0  0  0
    8.8700    1.8577    0.0000 O   0  0  0  0  0  0  0  0  0  0  0  0
  1  2  1  0  0  0  0
  1  3  1  0  0  0  0
  2  4  2  0  0  0  0
  2  5  1  0  0  0  0
  3  6  1  0  0  0  0
  3  7  1  0  0  0  0
  6  8  2  0  0  0  0
  7  9  1  0  0  0  0
  9 10  2  0  0  0  0
  9 11  1  0  0  0  0
 10 12  1  0  0  0  0
 11 13  2  0  0  0  0
 12 14  2  0  0  0  0
 14 15  1  0  0  0  0
 15 16  1  0  0  0  0
 16 17  1  0  0  0  0
 17 18  1  0  0  0  0
 17 19  1  0  0  0  0
 17 20  1  0  0  0  0
 18 21  1  0  0  0  0
 19 22  1  0  0  0  0
 21 23  2  0  0  0  0
 21 24  1  0  0  0  0
 23 25  1  0  0  0  0
 24 26  2  0  0  0  0
 24 27  1  0  0  0  0
 25 28  2  0  0  0  0
 25 29  1  0  0  0  0
 26 30  1  0  0  0  0
 28 31  1  0  0  0  0
  5  6  1  0  0  0  0
 13 14  1  0  0  0  0
 22 23  1  0  0  0  0
 26 28  1  0  0  0  0
M  END

>  <name>
Troglitazone

>  <ROTATABLE_BONDCOUNT>
5

>  <HBDScore>
0.5

>  <dipole>
4.94

>  <logD>
4.67

>  <MPOScore>
2.9175714285714287

>  <logDScore>
0.0

>  <MW>
441.54

>  <charge_dist(7.4)>
-0.86

>  <CNS>
TRUE

>  <ArRings>
2

>  <HBD>
2

>  <BALABAN_INDEX>
1.08

>  <bpKa>
-4.56

>  <TPSAScore>
1.0

>  <MWScore>
0.4175714285714285

>  <bpKaScore>
1.0

>  <logPScore>
0.0

>  <MPO_area>
28.48

>  <TPSA>
84.86

>  <logP>
5.50

$$$$

  Mrv1722703221715202D          

 21 24  0  0  1  0            999 V2000
    0.0000    0.0000    0.0000 O   0  0  0  0  0  0  0  0  0  0  0  0
    0.1104    0.8249    0.0000 C   0  0  0  0  0  0  0  0  0  0  0  0
   -0.5456    1.3445    0.0000 O   0  0  0  0  0  0  0  0  0  0  0  0
    0.8704    1.1366    0.0000 C   0  0  0  0  0  0  0  0  0  0  0  0
   -1.3185    1.0457    0.0000 C   0  0  2  0  0  0  0  0  0  0  0  0
    1.5654    0.7015    0.0000 C   0  0  0  0  0  0  0  0  0  0  0  0
    1.0652    1.9421    0.0000 C   0  0  0  0  0  0  0  0  0  0  0  0
   -1.4419    0.2338    0.0000 C   0  0  0  0  0  0  0  0  0  0  0  0
   -1.9746    1.5654    0.0000 C   0  0  0  0  0  0  0  0  0  0  0  0
    2.1954    1.2341    0.0000 C   0  0  0  0  0  0  0  0  0  0  0  0
    1.6953   -0.1039    0.0000 C   0  0  0  0  0  0  0  0  0  0  0  0
    1.8836    2.0005    0.0000 N   0  0  0  0  0  2  0  0  0  0  0  0
   -2.2538    0.0195    0.0000 C   0  0  1  0  0  0  0  0  0  0  0  0
   -2.7474    1.2665    0.0000 C   0  0  2  0  0  0  0  0  0  0  0  0
    2.9618    0.9548    0.0000 C   0  0  0  0  0  0  0  0  0  0  0  0
    2.4617   -0.3832    0.0000 C   0  0  0  0  0  0  0  0  0  0  0  0
   -2.0590    0.8249    0.0000 N   0  0  0  0  0  0  0  0  0  0  0  0
   -3.0852   -0.0260    0.0000 C   0  0  0  0  0  0  0  0  0  0  0  0
   -3.3905    0.7469    0.0000 C   0  0  0  0  0  0  0  0  0  0  0  0
    3.0917    0.1494    0.0000 C   0  0  0  0  0  0  0  0  0  0  0  0
   -1.7082    1.0847    0.0000 C   0  0  0  0  0  0  0  0  0  0  0  0
  1  2  2  0  0  0  0
  2  3  1  0  0  0  0
  2  4  1  0  0  0  0
  5  3  1  6  0  0  0
  4  6  1  0  0  0  0
  4  7  2  0  0  0  0
  5  8  1  0  0  0  0
  5  9  1  0  0  0  0
  6 10  2  0  0  0  0
  6 11  1  0  0  0  0
  7 12  1  0  0  0  0
  8 13  1  0  0  0  0
  9 14  1  0  0  0  0
 10 15  1  0  0  0  0
 11 16  2  0  0  0  0
 13 17  1  1  0  0  0
 13 18  1  0  0  0  0
 14 19  1  0  0  0  0
 15 20  2  0  0  0  0
 17 21  1  0  0  0  0
 10 12  1  0  0  0  0
 14 17  1  1  0  0  0
 16 20  1  0  0  0  0
 18 19  1  0  0  0  0
M  RAD  1  12   2
M  END

>  <name>
Tropisetron

>  <ROTATABLE_BONDCOUNT>
3

>  <HBDScore>
1.0

>  <logD>
0.47

>  <MPOScore>
5.35

>  <logDScore>
1.0

>  <MW>
283.351

>  <charge_dist(7.4)>
0.99

>  <CNS>
TRUE

>  <ArRings>
2

>  <HBD>
0

>  <BALABAN_INDEX>
1.12

>  <bpKa>
9.3

>  <TPSAScore>
1.0

>  <MWScore>
1.0

>  <bpKaScore>
0.34999999999999964

>  <logPScore>
1.0

>  <MPO_area>
78.33

>  <TPSA>
42.43

>  <logP>
2.36

$$$$

  Mrv1722703221715202D          

 22 24  0  0  0  0            999 V2000
    0.0000    0.0000    0.0000 S   0  0  0  0  0  0  0  0  0  0  0  0
   -0.3053    0.7794    0.0000 O   0  0  0  0  0  0  0  0  0  0  0  0
    0.2923   -0.7664    0.0000 O   0  0  0  0  0  0  0  0  0  0  0  0
   -0.7794   -0.2923    0.0000 N   0  0  0  0  0  0  0  0  0  0  0  0
    0.7664    0.3053    0.0000 C   0  0  0  0  0  0  0  0  0  0  0  0
    0.8833    1.1301    0.0000 C   0  0  0  0  0  0  0  0  0  0  0  0
    1.4029   -0.2079    0.0000 C   0  0  0  0  0  0  0  0  0  0  0  0
    1.6498    1.4354    0.0000 C   0  0  0  0  0  0  0  0  0  0  0  0
    2.1693    0.0974    0.0000 C   0  0  0  0  0  0  0  0  0  0  0  0
    2.2862    0.9223    0.0000 C   0  0  0  0  0  0  0  0  0  0  0  0
    3.0527    1.2275    0.0000 C   0  0  0  0  0  0  0  0  0  0  0  0
    3.7412    0.7859    0.0000 C   0  0  0  0  0  0  0  0  0  0  0  0
    3.2540    2.0329    0.0000 C   0  0  0  0  0  0  0  0  0  0  0  0
    4.3776    1.3120    0.0000 N   0  0  0  0  0  0  0  0  0  0  0  0
    3.7801   -0.0325    0.0000 C   0  0  0  0  0  0  0  0  0  0  0  0
    4.0724    2.0849    0.0000 O   0  0  0  0  0  0  0  0  0  0  0  0
    2.7279    2.6824    0.0000 C   0  0  0  0  0  0  0  0  0  0  0  0
    3.0851   -0.4806    0.0000 C   0  0  0  0  0  0  0  0  0  0  0  0
    4.5140   -0.3962    0.0000 C   0  0  0  0  0  0  0  0  0  0  0  0
    3.1241   -1.2990    0.0000 C   0  0  0  0  0  0  0  0  0  0  0  0
    4.5530   -1.2146    0.0000 C   0  0  0  0  0  0  0  0  0  0  0  0
    3.8581   -1.6627    0.0000 C   0  0  0  0  0  0  0  0  0  0  0  0
  1  2  2  0  0  0  0
  1  3  2  0  0  0  0
  1  4  1  0  0  0  0
  1  5  1  0  0  0  0
  5  6  2  0  0  0  0
  5  7  1  0  0  0  0
  6  8  1  0  0  0  0
  7  9  2  0  0  0  0
  8 10  2  0  0  0  0
 10 11  1  0  0  0  0
 11 12  1  0  0  0  0
 11 13  2  0  0  0  0
 12 14  2  0  0  0  0
 12 15  1  0  0  0  0
 13 16  1  0  0  0  0
 13 17  1  0  0  0  0
 15 18  2  0  0  0  0
 15 19  1  0  0  0  0
 18 20  1  0  0  0  0
 19 21  2  0  0  0  0
 20 22  2  0  0  0  0
  9 10  1  0  0  0  0
 14 16  1  0  0  0  0
 21 22  1  0  0  0  0
M  END

>  <name>
Valdecoxib

>  <ROTATABLE_BONDCOUNT>
3

>  <HBDScore>
0.8333333333333334

>  <dipole>
8.83

>  <logD>
2.82

>  <MPOScore>
5.423333333333333

>  <logDScore>
0.5900000000000001

>  <MW>
314.36

>  <charge_dist(7.4)>
-0.00

>  <CNS>
TRUE

>  <ArRings>
3

>  <HBD>
1

>  <BALABAN_INDEX>
1.62

>  <bpKa>
0.42

>  <TPSAScore>
1.0

>  <MWScore>
1.0

>  <bpKaScore>
1.0

>  <logPScore>
1.0

>  <MPO_area>
81.92

>  <TPSA>
86.19

>  <logP>
2.82

$$$$

  Mrv1722703221715202D          

 10  9  0  0  0  0            999 V2000
    0.0000    0.0000    0.0000 O   0  0  0  0  0  0  0  0  0  0  0  0
   -0.4189   -0.7025    0.0000 C   0  0  0  0  0  0  0  0  0  0  0  0
   -0.0129   -1.4050    0.0000 O   0  0  0  0  0  0  0  0  0  0  0  0
   -1.2439   -0.6960    0.0000 C   0  0  0  0  0  0  0  0  0  0  0  0
   -1.6628   -1.3986    0.0000 C   0  0  0  0  0  0  0  0  0  0  0  0
   -1.6628    0.0193    0.0000 C   0  0  0  0  0  0  0  0  0  0  0  0
   -2.4877   -1.3921    0.0000 C   0  0  0  0  0  0  0  0  0  0  0  0
   -2.4877    0.0258    0.0000 C   0  0  0  0  0  0  0  0  0  0  0  0
   -2.9066   -2.0946    0.0000 C   0  0  0  0  0  0  0  0  0  0  0  0
   -2.9066    0.7412    0.0000 C   0  0  0  0  0  0  0  0  0  0  0  0
  1  2  2  0  0  0  0
  2  3  1  0  0  0  0
  2  4  1  0  0  0  0
  4  5  1  0  0  0  0
  4  6  1  0  0  0  0
  5  7  1  0  0  0  0
  6  8  1  0  0  0  0
  7  9  1  0  0  0  0
  8 10  1  0  0  0  0
M  END

>  <name>
Valproic_acid

>  <ROTATABLE_BONDCOUNT>
5

>  <HBDScore>
0.8333333333333334

>  <dipole>
1.71

>  <logD>
0.56

>  <MPOScore>
5.698333333333333

>  <logDScore>
1.0

>  <MW>
144.214

>  <charge_dist(7.4)>
-0.99

>  <CNS>
TRUE

>  <ArRings>
0

>  <HBD>
1

>  <BALABAN_INDEX>
3.50

>  <bpKa>
0.0

>  <TPSAScore>
0.8649999999999999

>  <MWScore>
1.0

>  <bpKaScore>
1.0

>  <logPScore>
1.0

>  <MPO_area>
90.32

>  <TPSA>
37.30

>  <logP>
2.80

$$$$

  Mrv1722703221715202D          

 16 19  0  0  1  0            999 V2000
    0.0000    0.0000    0.0000 N   0  0  0  0  0  0  0  0  0  0  0  0
   -0.7159   -0.4100    0.0000 C   0  0  0  0  0  0  0  0  0  0  0  0
    0.7094   -0.3970    0.0000 C   0  0  0  0  0  0  0  0  0  0  0  0
   -0.7159   -1.2300    0.0000 C   0  0  0  0  0  0  0  0  0  0  0  0
   -1.4383    0.0000    0.0000 C   0  0  0  0  0  0  0  0  0  0  0  0
    0.7094   -1.2170    0.0000 C   0  0  0  0  0  0  0  0  0  0  0  0
   -0.0065   -1.6270    0.0000 N   0  0  0  0  0  0  0  0  0  0  0  0
   -1.4318   -1.6400    0.0000 C   0  0  0  0  0  0  0  0  0  0  0  0
   -2.1542   -0.4100    0.0000 C   0  0  0  0  0  0  0  0  0  0  0  0
   -2.1542   -1.2300    0.0000 C   0  0  0  0  0  0  0  0  0  0  0  0
   -2.9482   -0.1562    0.0000 C   0  0  2  0  0  0  0  0  0  0  0  0
   -2.9417   -1.4839    0.0000 C   0  0  2  0  0  0  0  0  0  0  0  0
   -3.7812   -0.0651    0.0000 C   0  0  0  0  0  0  0  0  0  0  0  0
   -3.4363   -0.8200    0.0000 C   0  0  0  0  0  0  0  0  0  0  0  0
   -3.7747   -1.4839    0.0000 C   0  0  0  0  0  0  0  0  0  0  0  0
   -4.1912   -0.7745    0.0000 N   0  0  0  0  0  0  0  0  0  0  0  0
  1  2  1  0  0  0  0
  1  3  2  0  0  0  0
  2  4  2  0  0  0  0
  2  5  1  0  0  0  0
  3  6  1  0  0  0  0
  4  7  1  0  0  0  0
  4  8  1  0  0  0  0
  5  9  2  0  0  0  0
  8 10  2  0  0  0  0
  9 11  1  0  0  0  0
 10 12  1  0  0  0  0
 11 13  1  1  0  0  0
 11 14  1  0  0  0  0
 12 15  1  1  0  0  0
 13 16  1  0  0  0  0
  6  7  2  0  0  0  0
  9 10  1  0  0  0  0
 12 14  1  0  0  0  0
 15 16  1  0  0  0  0
M  END

>  <name>
Varenicline

>  <ROTATABLE_BONDCOUNT>
0

>  <HBDScore>
0.8333333333333334

>  <dipole>
5.72

>  <logD>
-1.27

>  <MPOScore>
4.858833333333333

>  <logDScore>
1.0

>  <MW>
211.268

>  <charge_dist(7.4)>
1.00

>  <CNS>
TRUE

>  <ArRings>
2

>  <HBD>
1

>  <BALABAN_INDEX>
1.24

>  <bpKa>
9.73

>  <TPSAScore>
0.8905000000000002

>  <MWScore>
1.0

>  <bpKaScore>
0.1349999999999998

>  <logPScore>
1.0

>  <MPO_area>
64.67

>  <TPSA>
37.81

>  <logP>
1.01

$$$$

  Mrv1722703221715202D          

 33 37  0  0  0  0            999 V2000
    0.0000    0.0000    0.0000 O   0  0  0  0  0  0  0  0  0  0  0  0
    0.5132    0.6495    0.0000 C   0  0  0  0  0  0  0  0  0  0  0  0
    0.2079    1.4291    0.0000 N   0  0  0  0  0  0  0  0  0  0  0  0
    1.3251    0.5326    0.0000 C   0  0  0  0  0  0  0  0  0  0  0  0
    1.6953   -0.1949    0.0000 O   0  0  0  0  0  0  0  0  0  0  0  0
    1.9032    1.1237    0.0000 C   0  0  0  0  0  0  0  0  0  0  0  0
    2.5073   -0.0585    0.0000 C   0  0  0  0  0  0  0  0  0  0  0  0
    2.6372    0.7600    0.0000 C   0  0  0  0  0  0  0  0  0  0  0  0
    3.1438   -0.5716    0.0000 C   0  0  0  0  0  0  0  0  0  0  0  0
    3.4037    1.0653    0.0000 C   0  0  0  0  0  0  0  0  0  0  0  0
    3.9103   -0.2663    0.0000 C   0  0  0  0  0  0  0  0  0  0  0  0
    4.0402    0.5521    0.0000 C   0  0  0  0  0  0  0  0  0  0  0  0
    4.8067    0.8574    0.0000 N   0  0  0  0  0  0  0  0  0  0  0  0
    4.9236    1.6823    0.0000 C   0  0  0  0  0  0  0  0  0  0  0  0
    5.4433    0.3443    0.0000 C   0  0  0  0  0  0  0  0  0  0  0  0
    5.6901    1.9877    0.0000 C   0  0  0  0  0  0  0  0  0  0  0  0
    6.2098    0.6495    0.0000 C   0  0  0  0  0  0  0  0  0  0  0  0
    6.3267    1.4745    0.0000 N   0  0  0  0  0  0  0  0  0  0  0  0
    7.0931    1.7798    0.0000 C   0  0  0  0  0  0  0  0  0  0  0  0
    7.7297    1.2666    0.0000 C   0  0  0  0  0  0  0  0  0  0  0  0
    8.4962    1.5719    0.0000 C   0  0  0  0  0  0  0  0  0  0  0  0
    9.1328    1.0588    0.0000 C   0  0  0  0  0  0  0  0  0  0  0  0
    9.8993    1.3641    0.0000 C   0  0  0  0  0  0  0  0  0  0  0  0
   10.5878    0.9224    0.0000 C   0  0  0  0  0  0  0  0  0  0  0  0
   10.1006    2.1695    0.0000 C   0  0  0  0  0  0  0  0  0  0  0  0
   11.2244    1.4485    0.0000 C   0  0  0  0  0  0  0  0  0  0  0  0
   10.7112    0.1104    0.0000 C   0  0  0  0  0  0  0  0  0  0  0  0
   10.9191    2.2215    0.0000 N   0  0  0  0  0  2  0  0  0  0  0  0
   11.9908    1.1627    0.0000 C   0  0  0  0  0  0  0  0  0  0  0  0
   11.4777   -0.1754    0.0000 C   0  0  0  0  0  0  0  0  0  0  0  0
   12.1142    0.3507    0.0000 C   0  0  0  0  0  0  0  0  0  0  0  0
   11.6011   -0.9873    0.0000 C   0  0  0  0  0  0  0  0  0  0  0  0
   11.7245   -1.7993    0.0000 N   0  0  0  0  0  0  0  0  0  0  0  0
  1  2  2  0  0  0  0
  2  3  1  0  0  0  0
  2  4  1  0  0  0  0
  4  5  1  0  0  0  0
  4  6  2  0  0  0  0
  5  7  1  0  0  0  0
  6  8  1  0  0  0  0
  7  9  2  0  0  0  0
  8 10  2  0  0  0  0
  9 11  1  0  0  0  0
 10 12  1  0  0  0  0
 12 13  1  0  0  0  0
 13 14  1  0  0  0  0
 13 15  1  0  0  0  0
 14 16  1  0  0  0  0
 15 17  1  0  0  0  0
 16 18  1  0  0  0  0
 18 19  1  0  0  0  0
 19 20  1  0  0  0  0
 20 21  1  0  0  0  0
 21 22  1  0  0  0  0
 22 23  1  0  0  0  0
 23 24  1  0  0  0  0
 23 25  2  0  0  0  0
 24 26  2  0  0  0  0
 24 27  1  0  0  0  0
 25 28  1  0  0  0  0
 26 29  1  0  0  0  0
 27 30  2  0  0  0  0
 29 31  2  0  0  0  0
 30 32  1  0  0  0  0
 32 33  3  0  0  0  0
  7  8  1  0  0  0  0
 11 12  2  0  0  0  0
 17 18  1  0  0  0  0
 26 28  1  0  0  0  0
 30 31  1  0  0  0  0
M  RAD  1  28   2
M  END

>  <name>
Vilazodone

>  <ROTATABLE_BONDCOUNT>
7

>  <HBDScore>
0.8333333333333334

>  <logD>
2.37

>  <MPOScore>
4.315140476190477

>  <logDScore>
0.815

>  <MW>
440.527

>  <charge_dist(7.4)>
0.92

>  <CNS>
TRUE

>  <ArRings>
4

>  <HBD>
1

>  <BALABAN_INDEX>
0.95

>  <bpKa>
8.44

>  <TPSAScore>
0.687

>  <MWScore>
0.42480714285714294

>  <bpKaScore>
0.7800000000000002

>  <logPScore>
0.7749999999999999

>  <MPO_area>
51.63

>  <TPSA>
99.39

>  <logP>
3.45

$$$$

  Mrv1722703221715202D          

 26 30  0  0  0  0            999 V2000
    0.0000    0.0000    0.0000 O   0  0  0  0  0  0  0  0  0  0  0  0
   -0.4975    0.6681    0.0000 C   0  0  0  0  0  0  0  0  0  0  0  0
   -0.1777    1.4286    0.0000 O   0  0  0  0  0  0  0  0  0  0  0  0
   -1.3220    0.5828    0.0000 C   0  0  0  0  0  0  0  0  0  0  0  0
    0.6326    1.5280    0.0000 C   0  0  0  0  0  0  0  0  0  0  0  0
   -1.6560   -0.1635    0.0000 N   0  0  0  0  0  0  0  0  0  0  0  0
   -1.8195    1.2509    0.0000 C   0  0  0  0  0  0  0  0  0  0  0  0
    0.9524    2.2885    0.0000 C   0  0  0  0  0  0  0  0  0  0  0  0
   -1.3220   -0.9097    0.0000 C   0  0  0  0  0  0  0  0  0  0  0  0
   -2.4805   -0.2488    0.0000 C   0  0  0  0  0  0  0  0  0  0  0  0
   -2.6439    1.1656    0.0000 C   0  0  2  0  0  0  0  0  0  0  0  0
   -1.9403   -1.4570    0.0000 C   0  0  0  0  0  0  0  0  0  0  0  0
   -0.5473   -1.1514    0.0000 C   0  0  0  0  0  0  0  0  0  0  0  0
   -2.6510   -1.0448    0.0000 C   0  0  0  0  0  0  0  0  0  0  0  0
   -2.9779    0.4193    0.0000 C   0  0  1  0  0  0  0  0  0  0  0  0
   -3.1414    1.8337    0.0000 C   0  0  0  0  0  0  0  0  0  0  0  0
   -2.3241    1.9260    0.0000 C   0  0  0  0  0  0  0  0  0  0  0  0
   -1.7697   -2.2530    0.0000 C   0  0  0  0  0  0  0  0  0  0  0  0
   -0.3767   -1.9474    0.0000 C   0  0  0  0  0  0  0  0  0  0  0  0
   -3.5608   -1.0661    0.0000 C   0  0  0  0  0  0  0  0  0  0  0  0
   -3.8024    0.3341    0.0000 N   0  0  0  0  0  0  0  0  0  0  0  0
   -3.9659    1.7484    0.0000 C   0  0  0  0  0  0  0  0  0  0  0  0
   -1.5138    2.0256    0.0000 C   0  0  0  0  0  0  0  0  0  0  0  0
   -0.9950   -2.4947    0.0000 C   0  0  0  0  0  0  0  0  0  0  0  0
   -4.0938   -0.4264    0.0000 C   0  0  0  0  0  0  0  0  0  0  0  0
   -4.2999    1.0022    0.0000 C   0  0  0  0  0  0  0  0  0  0  0  0
  1  2  2  0  0  0  0
  2  3  1  0  0  0  0
  2  4  1  0  0  0  0
  3  5  1  0  0  0  0
  4  6  1  0  0  0  0
  4  7  2  0  0  0  0
  5  8  1  0  0  0  0
  6  9  1  0  0  0  0
  6 10  1  0  0  0  0
  7 11  1  0  0  0  0
  9 12  2  0  0  0  0
  9 13  1  0  0  0  0
 10 14  2  0  0  0  0
 10 15  1  0  0  0  0
 11 16  1  0  0  0  0
 11 17  1  1  0  0  0
 12 18  1  0  0  0  0
 13 19  2  0  0  0  0
 14 20  1  0  0  0  0
 15 21  1  6  0  0  0
 16 22  1  0  0  0  0
 17 23  1  0  0  0  0
 18 24  2  0  0  0  0
 20 25  1  0  0  0  0
 21 26  1  0  0  0  0
 11 15  1  0  0  0  0
 12 14  1  0  0  0  0
 19 24  1  0  0  0  0
 21 25  1  0  0  0  0
 22 26  1  0  0  0  0
M  END

>  <name>
Vinpocetine

>  <ROTATABLE_BONDCOUNT>
4

>  <HBDScore>
1.0

>  <dipole>
6.91

>  <logD>
3.95

>  <MPOScore>
4.2135

>  <logDScore>
0.02499999999999991

>  <MW>
350.462

>  <charge_dist(7.4)>
0.23

>  <CNS>
TRUE

>  <ArRings>
2

>  <HBD>
0

>  <BALABAN_INDEX>
1.57

>  <bpKa>
6.88

>  <TPSAScore>
0.7235

>  <MWScore>
1.0

>  <bpKaScore>
1.0

>  <logPScore>
0.46499999999999986

>  <MPO_area>
51.61

>  <TPSA>
34.47

>  <logP>
4.07

$$$$

  Mrv1722703221715202D          

 25 27  0  0  0  0            999 V2000
    0.0000    0.0000    0.0000 F   0  0  0  0  0  0  0  0  0  0  0  0
    0.3792    0.7453    0.0000 C   0  0  0  0  0  0  0  0  0  0  0  0
    1.2029    0.7910    0.0000 C   0  0  0  0  0  0  0  0  0  0  0  0
   -0.0719    1.4514    0.0000 C   0  0  0  0  0  0  0  0  0  0  0  0
    1.5821    1.5364    0.0000 N   0  0  0  0  0  0  0  0  0  0  0  0
    1.6410    0.0981    0.0000 C   0  0  2  0  0  0  0  0  0  0  0  0
    0.3073    2.1967    0.0000 N   0  0  0  0  0  0  0  0  0  0  0  0
    1.1310    2.2425    0.0000 C   0  0  0  0  0  0  0  0  0  0  0  0
    2.4647    0.1438    0.0000 C   0  0  2  0  0  0  0  0  0  0  0  0
    1.1899   -0.3988    0.0000 C   0  0  0  0  0  0  0  0  0  0  0  0
    2.4189    0.9806    0.0000 O   0  0  0  0  0  0  0  0  0  0  0  0
    3.2885    0.1896    0.0000 C   0  0  0  0  0  0  0  0  0  0  0  0
    2.4974   -0.6799    0.0000 C   0  0  0  0  0  0  0  0  0  0  0  0
    3.6677    0.9349    0.0000 C   0  0  0  0  0  0  0  0  0  0  0  0
    3.7265   -0.5034    0.0000 C   0  0  0  0  0  0  0  0  0  0  0  0
    1.7913   -1.1179    0.0000 N   0  0  0  0  0  0  0  0  0  0  0  0
    3.2166    1.6410    0.0000 F   0  0  0  0  0  0  0  0  0  0  0  0
    4.4914    0.9806    0.0000 C   0  0  0  0  0  0  0  0  0  0  0  0
    4.5503   -0.4577    0.0000 C   0  0  0  0  0  0  0  0  0  0  0  0
    1.0133   -0.8107    0.0000 N   0  0  0  0  0  0  0  0  0  0  0  0
    1.7325   -1.9417    0.0000 C   0  0  0  0  0  0  0  0  0  0  0  0
    4.9295    0.2877    0.0000 C   0  0  0  0  0  0  0  0  0  0  0  0
    0.4773   -1.4448    0.0000 C   0  0  0  0  0  0  0  0  0  0  0  0
    0.9218   -2.1444    0.0000 N   0  0  0  0  0  0  0  0  0  0  0  0
    5.7532    0.3334    0.0000 F   0  0  0  0  0  0  0  0  0  0  0  0
  1  2  1  0  0  0  0
  2  3  2  0  0  0  0
  2  4  1  0  0  0  0
  3  5  1  0  0  0  0
  3  6  1  0  0  0  0
  4  7  2  0  0  0  0
  5  8  2  0  0  0  0
  9  6  1  6  0  0  0
  6 10  1  6  0  0  0
  9 11  1  0  0  0  0
  9 12  1  0  0  0  0
  9 13  1  0  0  0  0
 12 14  2  0  0  0  0
 12 15  1  0  0  0  0
 13 16  1  0  0  0  0
 14 17  1  0  0  0  0
 14 18  1  0  0  0  0
 15 19  2  0  0  0  0
 16 20  1  0  0  0  0
 16 21  1  0  0  0  0
 18 22  2  0  0  0  0
 20 23  2  0  0  0  0
 21 24  2  0  0  0  0
 22 25  1  0  0  0  0
  7  8  1  0  0  0  0
 19 22  1  0  0  0  0
 23 24  1  0  0  0  0
M  END

>  <name>
Voriconazole

>  <ROTATABLE_BONDCOUNT>
5

>  <HBDScore>
0.8333333333333334

>  <dipole>
2.90

>  <logD>
1.82

>  <MPOScore>
5.833333333333333

>  <logDScore>
1.0

>  <MW>
349.317

>  <charge_dist(7.4)>
-0.00

>  <CNS>
TRUE

>  <ArRings>
3

>  <HBD>
1

>  <BALABAN_INDEX>
1.61

>  <bpKa>
2

>  <TPSAScore>
1.0

>  <MWScore>
1.0

>  <bpKaScore>
1.0

>  <logPScore>
1.0

>  <MPO_area>
94.44

>  <TPSA>
76.72

>  <logP>
1.82

$$$$

  Mrv1722703221715202D          

 19 19  0  0  0  0            999 V2000
    0.0000    0.0000    0.0000 O   0  0  0  0  0  0  0  0  0  0  0  0
    0.0841    0.8280    0.0000 C   0  0  0  0  0  0  0  0  0  0  0  0
   -0.5887    1.3197    0.0000 N   0  0  0  0  0  0  0  0  0  0  0  0
    0.8345    1.1709    0.0000 C   0  0  0  0  0  0  0  0  0  0  0  0
   -1.3520    0.9897    0.0000 O   0  0  0  0  0  0  0  0  0  0  0  0
    1.4943    0.6922    0.0000 C   0  0  0  0  0  0  0  0  0  0  0  0
    2.2447    1.0351    0.0000 C   0  0  0  0  0  0  0  0  0  0  0  0
    2.9046    0.5564    0.0000 C   0  0  0  0  0  0  0  0  0  0  0  0
    3.6549    0.8992    0.0000 C   0  0  0  0  0  0  0  0  0  0  0  0
    4.3148    0.4205    0.0000 C   0  0  0  0  0  0  0  0  0  0  0  0
    5.0652    0.7633    0.0000 C   0  0  0  0  0  0  0  0  0  0  0  0
    5.1493    1.5914    0.0000 O   0  0  0  0  0  0  0  0  0  0  0  0
    5.7251    0.2846    0.0000 N   0  0  0  0  0  0  0  0  0  0  0  0
    6.4754    0.6275    0.0000 C   0  0  0  0  0  0  0  0  0  0  0  0
    6.5595    1.4555    0.0000 C   0  0  0  0  0  0  0  0  0  0  0  0
    7.1353    0.1488    0.0000 C   0  0  0  0  0  0  0  0  0  0  0  0
    7.3099    1.7983    0.0000 C   0  0  0  0  0  0  0  0  0  0  0  0
    7.8857    0.4916    0.0000 C   0  0  0  0  0  0  0  0  0  0  0  0
    7.9698    1.3197    0.0000 C   0  0  0  0  0  0  0  0  0  0  0  0
  1  2  2  0  0  0  0
  2  3  1  0  0  0  0
  2  4  1  0  0  0  0
  3  5  1  0  0  0  0
  4  6  1  0  0  0  0
  6  7  1  0  0  0  0
  7  8  1  0  0  0  0
  8  9  1  0  0  0  0
  9 10  1  0  0  0  0
 10 11  1  0  0  0  0
 11 12  2  0  0  0  0
 11 13  1  0  0  0  0
 13 14  1  0  0  0  0
 14 15  2  0  0  0  0
 14 16  1  0  0  0  0
 15 17  1  0  0  0  0
 16 18  2  0  0  0  0
 17 19  2  0  0  0  0
 18 19  1  0  0  0  0
M  END

>  <name>
Vorinostat

>  <ROTATABLE_BONDCOUNT>
8

>  <HBDScore>
0.16666666666666674

>  <dipole>
2.20

>  <logD>
1.99

>  <MPOScore>
5.166666666666667

>  <logDScore>
1.0

>  <MW>
264.325

>  <charge_dist(7.4)>
-0.03

>  <CNS>
TRUE

>  <ArRings>
1

>  <HBD>
3

>  <BALABAN_INDEX>
1.80

>  <bpKa>
-3.52

>  <TPSAScore>
1.0

>  <MWScore>
1.0

>  <bpKaScore>
1.0

>  <logPScore>
1.0

>  <MPO_area>
72.22

>  <TPSA>
78.43

>  <logP>
2.00

$$$$

  Mrv1722703221715202D          

 21 23  0  0  0  0            999 V2000
    0.0000    0.0000    0.0000 S   0  0  0  0  0  0  0  0  0  0  0  0
    0.3869    0.7287    0.0000 C   0  0  0  0  0  0  0  0  0  0  0  0
   -0.8254   -0.0129    0.0000 C   0  0  0  0  0  0  0  0  0  0  0  0
    1.1994    0.7545    0.0000 C   0  0  0  0  0  0  0  0  0  0  0  0
   -0.0452    1.4316    0.0000 C   0  0  0  0  0  0  0  0  0  0  0  0
   -1.2252   -0.7287    0.0000 C   0  0  0  0  0  0  0  0  0  0  0  0
   -1.2574    0.6900    0.0000 C   0  0  0  0  0  0  0  0  0  0  0  0
    1.6186    0.0645    0.0000 N   0  0  0  0  0  0  0  0  0  0  0  0
    1.5863    1.4832    0.0000 C   0  0  0  0  0  0  0  0  0  0  0  0
    0.3418    2.1602    0.0000 C   0  0  0  0  0  0  0  0  0  0  0  0
   -2.0507   -0.7416    0.0000 C   0  0  0  0  0  0  0  0  0  0  0  0
   -0.8060   -1.4187    0.0000 C   0  0  0  0  0  0  0  0  0  0  0  0
   -2.0829    0.6771    0.0000 C   0  0  0  0  0  0  0  0  0  0  0  0
    1.2188   -0.6513    0.0000 C   0  0  0  0  0  0  0  0  0  0  0  0
    2.4311    0.0903    0.0000 C   0  0  0  0  0  0  0  0  0  0  0  0
    1.1543    2.1861    0.0000 C   0  0  0  0  0  0  0  0  0  0  0  0
   -2.4827   -0.0387    0.0000 C   0  0  0  0  0  0  0  0  0  0  0  0
    1.6379   -1.3413    0.0000 C   0  0  0  0  0  0  0  0  0  0  0  0
    2.8502   -0.5997    0.0000 C   0  0  0  0  0  0  0  0  0  0  0  0
   -3.3081   -0.0516    0.0000 C   0  0  0  0  0  0  0  0  0  0  0  0
    2.4504   -1.3155    0.0000 N   0  0  0  0  0  0  0  0  0  0  0  0
  1  2  1  0  0  0  0
  1  3  1  0  0  0  0
  2  4  2  0  0  0  0
  2  5  1  0  0  0  0
  3  6  2  0  0  0  0
  3  7  1  0  0  0  0
  4  8  1  0  0  0  0
  4  9  1  0  0  0  0
  5 10  2  0  0  0  0
  6 11  1  0  0  0  0
  6 12  1  0  0  0  0
  7 13  2  0  0  0  0
  8 14  1  0  0  0  0
  8 15  1  0  0  0  0
  9 16  2  0  0  0  0
 11 17  2  0  0  0  0
 14 18  1  0  0  0  0
 15 19  1  0  0  0  0
 17 20  1  0  0  0  0
 18 21  1  0  0  0  0
 10 16  1  0  0  0  0
 13 17  1  0  0  0  0
 19 21  1  0  0  0  0
M  END

>  <name>
Vortioxetine

>  <ROTATABLE_BONDCOUNT>
3

>  <HBDScore>
0.8333333333333334

>  <dipole>
3.76

>  <logD>
3.31

>  <MPOScore>
2.8733333333333335

>  <logDScore>
0.345

>  <MW>
298.45

>  <charge_dist(7.4)>
0.97

>  <CNS>
TRUE

>  <ArRings>
2

>  <HBD>
1

>  <BALABAN_INDEX>
1.38

>  <bpKa>
8.85

>  <TPSAScore>
0.0

>  <MWScore>
1.0

>  <bpKaScore>
0.5750000000000002

>  <logPScore>
0.1200000000000001

>  <MPO_area>
25.87

>  <TPSA>
15.27

>  <logP>
4.76

$$$$

  Mrv1722703221715202D          

 23 25  0  0  0  0            999 V2000
    0.0000    0.0000    0.0000 O   0  0  0  0  0  0  0  0  0  0  0  0
   -0.6885    0.4742    0.0000 C   0  0  0  0  0  0  0  0  0  0  0  0
   -0.6301    1.3056    0.0000 N   0  0  0  0  0  0  0  0  0  0  0  0
   -1.4420    0.1234    0.0000 C   0  0  0  0  0  0  0  0  0  0  0  0
    0.1104    1.6693    0.0000 C   0  0  0  0  0  0  0  0  0  0  0  0
   -1.3186    1.7797    0.0000 C   0  0  0  0  0  0  0  0  0  0  0  0
    0.7860    1.2081    0.0000 C   0  0  0  0  0  0  0  0  0  0  0  0
    0.1689    2.5007    0.0000 C   0  0  0  0  0  0  0  0  0  0  0  0
   -2.0721    1.4290    0.0000 C   0  0  0  0  0  0  0  0  0  0  0  0
    1.5265    1.5719    0.0000 C   0  0  0  0  0  0  0  0  0  0  0  0
    0.9094    2.8645    0.0000 C   0  0  0  0  0  0  0  0  0  0  0  0
    2.2020    1.1107    0.0000 C   0  0  0  0  0  0  0  0  0  0  0  0
    1.5849    2.4033    0.0000 C   0  0  0  0  0  0  0  0  0  0  0  0
    2.9424    1.4745    0.0000 N   0  0  0  0  0  0  0  0  0  0  0  0
    2.1305    0.2923    0.0000 C   0  0  0  0  0  0  0  0  0  0  0  0
    3.1698    2.2734    0.0000 N   0  0  0  0  0  0  0  0  0  0  0  0
    3.6180    1.0133    0.0000 C   0  0  0  0  0  0  0  0  0  0  0  0
    2.8060   -0.1689    0.0000 C   0  0  0  0  0  0  0  0  0  0  0  0
    3.9882    2.2994    0.0000 C   0  0  0  0  0  0  0  0  0  0  0  0
    3.5466    0.1949    0.0000 N   0  0  0  0  0  0  0  0  0  0  0  0
    4.2675    1.5200    0.0000 C   0  0  0  0  0  0  0  0  0  0  0  0
    5.0535    1.2926    0.0000 C   0  0  0  0  0  0  0  0  0  0  0  0
    5.8394    1.0653    0.0000 N   0  0  0  0  0  0  0  0  0  0  0  0
  1  2  2  0  0  0  0
  2  3  1  0  0  0  0
  2  4  1  0  0  0  0
  3  5  1  0  0  0  0
  3  6  1  0  0  0  0
  5  7  2  0  0  0  0
  5  8  1  0  0  0  0
  6  9  1  0  0  0  0
  7 10  1  0  0  0  0
  8 11  2  0  0  0  0
 10 12  1  0  0  0  0
 10 13  2  0  0  0  0
 12 14  1  0  0  0  0
 12 15  2  0  0  0  0
 14 16  1  0  0  0  0
 14 17  1  0  0  0  0
 15 18  1  0  0  0  0
 16 19  2  0  0  0  0
 17 20  1  0  0  0  0
 17 21  2  0  0  0  0
 21 22  1  0  0  0  0
 22 23  3  0  0  0  0
 11 13  1  0  0  0  0
 18 20  2  0  0  0  0
 19 21  1  0  0  0  0
M  END

>  <name>
Zaleplon

>  <ROTATABLE_BONDCOUNT>
3

>  <HBDScore>
1.0

>  <dipole>
9.96

>  <logD>
1.53

>  <MPOScore>
6.0

>  <logDScore>
1.0

>  <MW>
305.341

>  <charge_dist(7.4)>
0.00

>  <CNS>
TRUE

>  <ArRings>
3

>  <HBD>
0

>  <BALABAN_INDEX>
1.59

>  <bpKa>
0.28

>  <TPSAScore>
1.0

>  <MWScore>
1.0

>  <bpKaScore>
1.0

>  <logPScore>
1.0

>  <MPO_area>
100.0

>  <TPSA>
74.29

>  <logP>
1.53

$$$$

  Mrv1722703221715202D          

 28 32  0  0  0  0            999 V2000
    0.0000    0.0000    0.0000 Cl  0  0  0  0  0  0  0  0  0  0  0  0
    0.5753   -0.5753    0.0000 C   0  0  0  0  0  0  0  0  0  0  0  0
    0.3555   -1.3639    0.0000 C   0  0  0  0  0  0  0  0  0  0  0  0
    1.3639   -0.3555    0.0000 C   0  0  0  0  0  0  0  0  0  0  0  0
    0.9308   -1.9392    0.0000 C   0  0  0  0  0  0  0  0  0  0  0  0
   -0.4460   -1.5707    0.0000 C   0  0  0  0  0  0  0  0  0  0  0  0
    1.9392   -0.9308    0.0000 C   0  0  0  0  0  0  0  0  0  0  0  0
    1.7194   -1.7194    0.0000 C   0  0  0  0  0  0  0  0  0  0  0  0
   -1.0342   -0.9825    0.0000 C   0  0  0  0  0  0  0  0  0  0  0  0
    2.7537   -0.8791    0.0000 N   0  0  0  0  0  0  0  0  0  0  0  0
    2.4046   -2.1590    0.0000 C   0  0  0  0  0  0  0  0  0  0  0  0
   -1.8358   -1.1894    0.0000 N   0  0  0  0  0  0  0  0  0  0  0  0
    3.0381   -1.6418    0.0000 C   0  0  0  0  0  0  0  0  0  0  0  0
   -2.4240   -0.6011    0.0000 C   0  0  0  0  0  0  0  0  0  0  0  0
   -2.0556   -1.9780    0.0000 C   0  0  0  0  0  0  0  0  0  0  0  0
    3.8267   -1.8487    0.0000 O   0  0  0  0  0  0  0  0  0  0  0  0
   -3.2255   -0.8080    0.0000 C   0  0  0  0  0  0  0  0  0  0  0  0
   -2.8571   -2.1848    0.0000 C   0  0  0  0  0  0  0  0  0  0  0  0
   -3.4453   -1.5966    0.0000 N   0  0  0  0  0  0  0  0  0  0  0  0
   -4.2469   -1.8034    0.0000 C   0  0  0  0  0  0  0  0  0  0  0  0
   -4.5507   -2.5662    0.0000 N   0  0  0  0  0  0  0  0  0  0  0  0
   -4.8933   -1.2799    0.0000 C   0  0  0  0  0  0  0  0  0  0  0  0
   -5.3780   -2.5145    0.0000 S   0  0  0  0  0  0  0  0  0  0  0  0
   -5.5914   -1.7194    0.0000 C   0  0  0  0  0  0  0  0  0  0  0  0
   -4.9450   -0.4525    0.0000 C   0  0  0  0  0  0  0  0  0  0  0  0
   -6.3283   -1.3380    0.0000 C   0  0  0  0  0  0  0  0  0  0  0  0
   -5.6818   -0.0711    0.0000 C   0  0  0  0  0  0  0  0  0  0  0  0
   -6.3800   -0.5107    0.0000 C   0  0  0  0  0  0  0  0  0  0  0  0
  1  2  1  0  0  0  0
  2  3  2  0  0  0  0
  2  4  1  0  0  0  0
  3  5  1  0  0  0  0
  3  6  1  0  0  0  0
  4  7  2  0  0  0  0
  5  8  2  0  0  0  0
  6  9  1  0  0  0  0
  7 10  1  0  0  0  0
  8 11  1  0  0  0  0
  9 12  1  0  0  0  0
 10 13  1  0  0  0  0
 12 14  1  0  0  0  0
 12 15  1  0  0  0  0
 13 16  2  0  0  0  0
 14 17  1  0  0  0  0
 15 18  1  0  0  0  0
 17 19  1  0  0  0  0
 19 20  1  0  0  0  0
 20 21  2  0  0  0  0
 20 22  1  0  0  0  0
 21 23  1  0  0  0  0
 22 24  2  0  0  0  0
 22 25  1  0  0  0  0
 24 26  1  0  0  0  0
 25 27  2  0  0  0  0
 26 28  2  0  0  0  0
  7  8  1  0  0  0  0
 11 13  1  0  0  0  0
 18 19  1  0  0  0  0
 23 24  1  0  0  0  0
 27 28  1  0  0  0  0
M  END

>  <name>
Ziprasidone

>  <ROTATABLE_BONDCOUNT>
4

>  <HBDScore>
0.8333333333333334

>  <dipole>
2.49

>  <logD>
4.13

>  <MPOScore>
3.8051904761904765

>  <logDScore>
0.0

>  <MW>
412.94

>  <charge_dist(7.4)>
0.33

>  <CNS>
TRUE

>  <ArRings>
3

>  <HBD>
1

>  <BALABAN_INDEX>
1.00

>  <bpKa>
7.09

>  <TPSAScore>
1.0

>  <MWScore>
0.6218571428571429

>  <bpKaScore>
1.0

>  <logPScore>
0.3500000000000001

>  <MPO_area>
42.82

>  <TPSA>
48.47

>  <logP>
4.30

$$$$

  Mrv1722703221715202D          

 21 23  0  0  0  0            999 V2000
    0.0000    0.0000    0.0000 O   0  0  0  0  0  0  0  0  0  0  0  0
    0.5792   -0.5792    0.0000 C   0  0  0  0  0  0  0  0  0  0  0  0
    0.4426   -1.3928    0.0000 O   0  0  0  0  0  0  0  0  0  0  0  0
    1.3928   -0.4426    0.0000 N   0  0  0  0  0  0  0  0  0  0  0  0
    1.1715   -1.7638    0.0000 C   0  0  0  0  0  0  0  0  0  0  0  0
    1.7638   -1.1715    0.0000 C   0  0  2  0  0  0  0  0  0  0  0  0
    2.5774   -1.2952    0.0000 C   0  0  0  0  0  0  0  0  0  0  0  0
    3.0916   -0.6443    0.0000 C   0  0  0  0  0  0  0  0  0  0  0  0
    3.9051   -0.7680    0.0000 C   0  0  0  0  0  0  0  0  0  0  0  0
    2.7857    0.1367    0.0000 C   0  0  0  0  0  0  0  0  0  0  0  0
    4.4193   -0.1171    0.0000 C   0  0  0  0  0  0  0  0  0  0  0  0
    3.2998    0.7875    0.0000 C   0  0  0  0  0  0  0  0  0  0  0  0
    4.1134    0.6639    0.0000 C   0  0  0  0  0  0  0  0  0  0  0  0
    5.2394   -0.0651    0.0000 C   0  0  0  0  0  0  0  0  0  0  0  0
    4.7513    1.1911    0.0000 N   0  0  0  0  0  2  0  0  0  0  0  0
    5.4477    0.7420    0.0000 C   0  0  0  0  0  0  0  0  0  0  0  0
    5.7536   -0.7029    0.0000 C   0  0  0  0  0  0  0  0  0  0  0  0
    6.5671   -0.5662    0.0000 C   0  0  0  0  0  0  0  0  0  0  0  0
    7.0813   -1.2041    0.0000 N   0  0  0  0  0  0  0  0  0  0  0  0
    7.8949   -1.0674    0.0000 C   0  0  0  0  0  0  0  0  0  0  0  0
    6.7819   -1.9721    0.0000 C   0  0  0  0  0  0  0  0  0  0  0  0
  1  2  2  0  0  0  0
  2  3  1  0  0  0  0
  2  4  1  0  0  0  0
  3  5  1  0  0  0  0
  4  6  1  0  0  0  0
  6  7  1  1  0  0  0
  7  8  1  0  0  0  0
  8  9  2  0  0  0  0
  8 10  1  0  0  0  0
  9 11  1  0  0  0  0
 10 12  2  0  0  0  0
 11 13  2  0  0  0  0
 11 14  1  0  0  0  0
 13 15  1  0  0  0  0
 14 16  2  0  0  0  0
 14 17  1  0  0  0  0
 17 18  1  0  0  0  0
 18 19  1  0  0  0  0
 19 20  1  0  0  0  0
 19 21  1  0  0  0  0
  5  6  1  0  0  0  0
 12 13  1  0  0  0  0
 15 16  1  0  0  0  0
M  RAD  1  15   2
M  END

>  <name>
Zolmitriptan

>  <ROTATABLE_BONDCOUNT>
5

>  <HBDScore>
0.8333333333333334

>  <logD>
0.04

>  <MPOScore>
5.263333333333333

>  <logDScore>
1.0

>  <MW>
286.355

>  <charge_dist(7.4)>
0.98

>  <CNS>
TRUE

>  <ArRings>
2

>  <HBD>
1

>  <BALABAN_INDEX>
1.30

>  <bpKa>
9.14

>  <TPSAScore>
1.0

>  <MWScore>
1.0

>  <bpKaScore>
0.4299999999999997

>  <logPScore>
1.0

>  <MPO_area>
77.03

>  <TPSA>
54.46

>  <logP>
1.77

$$$$

  Mrv1722703221715202D          

 23 25  0  0  0  0            999 V2000
    0.0000    0.0000    0.0000 O   0  0  0  0  0  0  0  0  0  0  0  0
   -0.7597    0.3348    0.0000 C   0  0  0  0  0  0  0  0  0  0  0  0
   -0.8627    1.1589    0.0000 N   0  0  0  0  0  0  0  0  0  0  0  0
   -1.4293   -0.1481    0.0000 C   0  0  0  0  0  0  0  0  0  0  0  0
   -0.2060    1.6546    0.0000 C   0  0  0  0  0  0  0  0  0  0  0  0
   -1.6224    1.4936    0.0000 C   0  0  0  0  0  0  0  0  0  0  0  0
   -1.3391   -0.9593    0.0000 C   0  0  0  0  0  0  0  0  0  0  0  0
   -0.6309   -1.3585    0.0000 N   0  0  0  0  0  0  0  0  0  0  0  0
   -1.9508   -1.5130    0.0000 C   0  0  0  0  0  0  0  0  0  0  0  0
   -0.7983   -2.1568    0.0000 C   0  0  0  0  0  0  0  0  0  0  0  0
    0.1417   -1.0880    0.0000 C   0  0  0  0  0  0  0  0  0  0  0  0
   -1.6160   -2.2533    0.0000 N   0  0  0  0  0  0  0  0  0  0  0  0
   -2.7620   -1.3456    0.0000 C   0  0  0  0  0  0  0  0  0  0  0  0
   -0.1867   -2.6976    0.0000 C   0  0  0  0  0  0  0  0  0  0  0  0
    0.7533   -1.6288    0.0000 C   0  0  0  0  0  0  0  0  0  0  0  0
   -3.0323   -0.5601    0.0000 C   0  0  0  0  0  0  0  0  0  0  0  0
   -3.3156   -1.9572    0.0000 C   0  0  0  0  0  0  0  0  0  0  0  0
    0.5859   -2.4272    0.0000 C   0  0  0  0  0  0  0  0  0  0  0  0
    1.5258   -1.3585    0.0000 C   0  0  0  0  0  0  0  0  0  0  0  0
   -3.8435   -0.3927    0.0000 C   0  0  0  0  0  0  0  0  0  0  0  0
   -4.1268   -1.7898    0.0000 C   0  0  0  0  0  0  0  0  0  0  0  0
   -4.3973   -1.0043    0.0000 C   0  0  0  0  0  0  0  0  0  0  0  0
   -5.2085   -0.8369    0.0000 C   0  0  0  0  0  0  0  0  0  0  0  0
  1  2  2  0  0  0  0
  2  3  1  0  0  0  0
  2  4  1  0  0  0  0
  3  5  1  0  0  0  0
  3  6  1  0  0  0  0
  4  7  1  0  0  0  0
  7  8  1  0  0  0  0
  7  9  2  0  0  0  0
  8 10  1  0  0  0  0
  8 11  1  0  0  0  0
  9 12  1  0  0  0  0
  9 13  1  0  0  0  0
 10 14  1  0  0  0  0
 11 15  2  0  0  0  0
 13 16  2  0  0  0  0
 13 17  1  0  0  0  0
 14 18  2  0  0  0  0
 15 19  1  0  0  0  0
 16 20  1  0  0  0  0
 17 21  2  0  0  0  0
 20 22  2  0  0  0  0
 22 23  1  0  0  0  0
 10 12  2  0  0  0  0
 15 18  1  0  0  0  0
 21 22  1  0  0  0  0
M  END

>  <name>
Zolpidem

>  <ROTATABLE_BONDCOUNT>
3

>  <HBDScore>
1.0

>  <dipole>
8.28

>  <logD>
3.01

>  <MPOScore>
5.365500000000001

>  <logDScore>
0.4950000000000001

>  <MW>
307.397

>  <charge_dist(7.4)>
0.01

>  <CNS>
TRUE

>  <ArRings>
3

>  <HBD>
0

>  <BALABAN_INDEX>
1.66

>  <bpKa>
5.39

>  <TPSAScore>
0.8805000000000001

>  <MWScore>
1.0

>  <bpKaScore>
1.0

>  <logPScore>
0.99

>  <MPO_area>
79.88

>  <TPSA>
37.61

>  <logP>
3.02

$$$$

  Mrv1722703221715202D          

 14 15  0  0  0  0            999 V2000
    0.0000    0.0000    0.0000 S   0  0  0  0  0  0  0  0  0  0  0  0
   -0.3071    0.7841    0.0000 O   0  0  0  0  0  0  0  0  0  0  0  0
    0.2940   -0.7710    0.0000 O   0  0  0  0  0  0  0  0  0  0  0  0
   -0.7841   -0.2940    0.0000 N   0  0  0  0  0  0  0  0  0  0  0  0
    0.7710    0.3071    0.0000 C   0  0  0  0  0  0  0  0  0  0  0  0
    1.4114   -0.2091    0.0000 C   0  0  0  0  0  0  0  0  0  0  0  0
    1.3657   -1.0324    0.0000 N   0  0  0  0  0  0  0  0  0  0  0  0
    2.2086    0.0131    0.0000 C   0  0  0  0  0  0  0  0  0  0  0  0
    2.1367   -1.3199    0.0000 O   0  0  0  0  0  0  0  0  0  0  0  0
    2.6530   -0.6796    0.0000 C   0  0  0  0  0  0  0  0  0  0  0  0
    2.5811    0.7580    0.0000 C   0  0  0  0  0  0  0  0  0  0  0  0
    3.4763   -0.6273    0.0000 C   0  0  0  0  0  0  0  0  0  0  0  0
    3.4044    0.8103    0.0000 C   0  0  0  0  0  0  0  0  0  0  0  0
    3.8487    0.1176    0.0000 C   0  0  0  0  0  0  0  0  0  0  0  0
  1  2  2  0  0  0  0
  1  3  2  0  0  0  0
  1  4  1  0  0  0  0
  1  5  1  0  0  0  0
  5  6  1  0  0  0  0
  6  7  2  0  0  0  0
  6  8  1  0  0  0  0
  7  9  1  0  0  0  0
  8 10  2  0  0  0  0
  8 11  1  0  0  0  0
 10 12  1  0  0  0  0
 11 13  2  0  0  0  0
 12 14  2  0  0  0  0
  9 10  1  0  0  0  0
 13 14  1  0  0  0  0
M  END

>  <name>
Zonisamide

>  <ROTATABLE_BONDCOUNT>
2

>  <HBDScore>
0.8333333333333334

>  <dipole>
5.64

>  <logD>
0.11

>  <MPOScore>
5.833333333333333

>  <logDScore>
1.0

>  <MW>
212.22

>  <charge_dist(7.4)>
-0.00

>  <CNS>
TRUE

>  <ArRings>
2

>  <HBD>
1

>  <BALABAN_INDEX>
1.94

>  <bpKa>
-1.75

>  <TPSAScore>
1.0

>  <MWScore>
1.0

>  <bpKaScore>
1.0

>  <logPScore>
1.0

>  <MPO_area>
94.44

>  <TPSA>
86.19

>  <logP>
0.11

$$$$
